16

C      -1.02       0.91      12.61
C      -1.11       4.66      12.92
C      -1.47       3.36      12.65
C      -0.58       2.31      12.81
C       0.74       2.61      13.21
C       1.14       3.91      13.45
C       0.20       4.95      13.34
O      -1.86       6.92      13.16
O      -3.25       5.42      12.32
O      -2.06       0.72      11.89
O      -0.45      -0.04      13.20
H      -2.34       3.19      12.35
H       1.35       1.91      13.32
H       2.02       4.10      13.69
H       0.44       5.83      13.54
C      -2.11       5.77      12.79
