16

O       4.60       1.42       1.65
O       5.99       2.93       2.48
O       4.80       7.63       2.91
O       3.19       8.39       1.61
C       4.85       2.58       2.01
C       3.76       7.43       2.19
C       3.84       3.68       1.88
C       4.21       4.98       2.15
H       5.07       5.16       2.45
C       3.32       6.03       1.99
C       1.60       4.43       1.35
C       2.54       3.40       1.46
H       2.30       2.52       1.26
C       2.00       5.74       1.59
H       1.39       6.43       1.48
H       0.72       4.24       1.11
