19

O       4.51       4.68       8.81
O       6.11       4.17       6.32
O       2.25       6.00       8.12
C       3.56       4.70       9.65
C       2.22       5.32       9.20
La       4.24       5.85       6.59
C       3.27       9.23       5.77
O       3.68       8.04       5.69
C       1.12       6.40       4.53
C       1.40       4.25       5.12
C       7.47       6.88       5.17
C       7.04       7.98       7.13
N       6.70       7.05       6.23
O       5.10       7.47       8.37
N       1.85       5.50       5.18
C       6.48       3.35       5.45
C       2.25       3.17       5.77
O       3.30       3.54       6.33
C       6.10       8.20       8.30
