14

O       1.11      22.37      41.09
O       1.11      22.37      37.21
O       1.11      24.31      39.15
O       1.11      20.43      39.15
O      -1.11      20.43      39.15
O      -1.11      24.31      39.15
O      -1.11      22.37      37.21
O      -1.11      22.37      41.09
Cu       1.31      22.37      39.15
Cu      -1.31      22.37      39.15
C       0.00      22.37      41.66
C       0.00      22.37      36.63
C       0.00      24.88      39.15
C       0.00      19.86      39.15
