26

Co       5.99       3.95       9.78
Co       1.05       3.91       9.83
C       3.54       5.49      11.09
C       6.62       5.36       7.16
C       4.39       5.49       7.71
C       3.54       2.40       8.51
C       6.16       3.27      12.81
C       6.70       1.49      11.48
C       2.67       2.42      11.94
C       0.41       2.27      12.29
C       8.40       2.33       8.56
C       0.45       6.47       8.19
C       0.73       4.62       6.84
C       8.40       5.48      11.09
N       5.62       5.06       8.00
N       6.32       2.78      11.57
N       1.44       2.72      11.55
N       0.69       5.14       8.08
O       4.73       5.18      10.88
O       2.53       5.24      10.38
O       4.45       2.59       9.34
O       2.35       2.81       8.61
O       9.35       2.57       9.34
O       7.22       2.75       8.68
O       7.46       5.38      10.26
O       9.54       5.00      11.04
