22

Al       6.05       1.50      18.49
Al       6.05      -1.50      18.49
Al       6.05       0.00      15.89
O       4.80       2.33      17.57
O       4.80      -1.11      19.67
O       4.80      -1.21      15.64
O       4.80       1.21      15.64
O       4.80      -2.32      17.57
O       4.80       1.11      19.67
O       7.31       2.33      17.57
O       7.31      -1.11      19.67
C       4.35       2.14      16.39
C       4.35       0.00      20.10
O       7.31      -2.32      17.57
O       7.31       1.11      19.67
O       6.05       0.00      17.62
C       7.75       2.14      16.39
C       7.75       0.00      20.10
C       4.35      -2.14      16.39
C       7.75      -2.14      16.39
O       7.31      -1.21      15.64
O       7.31       1.21      15.64
