14

O      11.18       1.11      29.90
O      11.18       1.11      26.02
O       9.24       1.11      27.96
O      13.13       1.11      27.96
O      13.13      -1.11      27.96
O       9.24      -1.11      27.96
O      11.18      -1.11      26.02
O      11.18      -1.11      29.90
C      11.18       0.00      30.47
C      11.18       0.00      25.45
C       8.67       0.00      27.96
C      13.70       0.00      27.96
Cu      11.18       1.31      27.96
Cu      11.18      -1.31      27.96
