17

C       3.56       4.70       9.65
O       3.60       4.25      10.82
C       2.22       5.32       9.20
O       1.24       5.15       9.91
O       0.48       2.87      14.13
C       3.57       5.25      14.99
La       1.50       4.13      12.21
C       0.96       2.72      15.28
O       2.32       6.49      12.35
C       2.13       3.61      15.65
C      -1.12       5.73      14.36
C       0.46       7.21      13.69
C       1.78       7.47      12.93
C       3.74       1.40      12.93
O       3.28       2.55      13.02
N       2.49       4.53      14.73
N       0.00       5.96      13.68
