14

O       0.00      21.26      29.90
O       0.00      21.26      26.02
O       1.94      21.26      27.96
O      -1.94      21.26      27.96
O      -1.94      23.48      27.96
O       1.94      23.48      27.96
O       0.00      23.48      26.02
O       0.00      23.48      29.90
C       0.00      22.37      30.47
C       0.00      22.37      25.45
C       2.51      22.37      27.96
C      -2.51      22.37      27.96
Cu       0.00      21.05      27.96
Cu       0.00      23.68      27.96
