11

C       6.91       0.27       4.53
C       8.21       3.26       6.58
Zn       9.43       1.52       4.50
C      10.61       3.32       6.59
C       9.45       1.41       7.49
O      10.76       0.18       5.07
O       7.48       1.38       4.31
N       9.43       2.44       6.40
C       9.89       3.41       2.77
C      11.35      -0.78       4.50
O      10.48       2.35       3.15
