19

C       3.57       5.25      14.99
C       4.00       4.16      16.95
O       5.95       4.67      18.20
La       6.81       6.29      16.41
C       4.94       3.93      18.12
C       9.92       5.73      14.36
O       7.74       8.59      16.16
C       4.57       8.79      15.28
O       6.53       7.46      18.63
O       4.94       7.96      16.15
O       8.79       6.14      17.94
C       8.79       8.97      15.60
C       7.49       7.44      19.48
C       8.82       6.82      19.02
C       7.78       2.90      15.60
O       7.37       4.09      15.51
C       9.64       7.89      14.95
N       4.34       5.09      16.05
N       9.20       6.64      15.01
