13

Tb      -3.01       6.15       0.25
O      -1.09       5.03      -0.45
O      -4.09       6.93       2.28
O      -4.93       7.26      -0.45
O      -1.93       5.36       2.28
C       0.10       4.89      -0.79
O      -4.60       4.45       1.03
C      -6.11       7.41      -0.79
O      -1.42       7.85       1.03
C      -4.11       3.31       0.79
C      -1.90       8.99       0.79
C      -3.66       6.56       3.39
C      -2.35       5.74       3.39
