14

C      13.70      11.18      27.96
O       9.24      10.07      27.96
O      11.18      10.07      26.02
O      11.18      10.07      29.90
O      13.13      10.07      27.96
Cu      11.18      12.50      27.96
O      11.18      12.30      29.90
O      11.18      12.30      26.02
O       9.24      12.30      27.96
O      13.13      12.30      27.96
C      11.18      11.18      30.47
C      11.18      11.18      25.45
C       8.67      11.18      27.96
Cu      11.18       9.87      27.96
