17

O       6.71       0.94       7.71
C       7.70       0.78       6.98
O       9.08       1.81       8.63
C       9.04       1.40       7.44
O       5.99       3.12      11.84
C       9.10       0.74      12.68
Nd       7.00       1.89       9.98
C       6.44       3.23      13.01
O       7.78      -0.41      10.06
C       7.62       2.34      13.36
C       4.38       0.34      12.11
C       5.95      -1.15      11.40
C       7.26      -1.39      10.67
C       9.23       4.59      10.67
O       8.73       3.45      10.80
N       8.00       1.45      12.42
N       5.50       0.11      11.42
