17

La       7.02       1.94       2.38
O       6.00       3.20       4.30
C       7.30      -1.40       3.11
C       5.98      -1.14       3.86
O       7.84      -0.42       2.53
N       8.01       1.53       4.91
N       5.52       0.11       3.86
C       9.08       1.37      -0.17
C       7.74       0.75      -0.63
O       9.12       1.82       0.99
O       6.77       0.91       0.09
C       9.10       0.82       5.17
C       9.26       4.67       3.11
C       7.65       2.45       5.82
C       6.48       3.35       5.45
O       8.80       3.52       3.20
C       4.40       0.33       4.53
