11

Cd       3.90       3.71      15.98
O       5.49       5.25      15.44
C       4.05       1.60      13.33
O       2.34       5.11      15.05
C       4.81       0.97      17.47
C       2.77       1.73      18.16
C       6.52       4.53      15.54
N       3.84       1.90      17.40
C       1.29       4.51      15.41
N       4.31       3.70      12.80
N       4.07       2.80      13.84
