19

Nd       6.79       6.26       4.43
O       5.97       4.68       6.19
C       8.75       8.89       3.65
C       8.78       6.75       6.98
C       7.44       7.38       7.44
O       7.70       8.52       4.20
O       8.74       6.10       5.91
O       6.50       7.41       6.60
N       4.39       5.09       4.04
C       7.74       2.92       3.65
N       9.15       6.56       3.05
C       9.87       5.63       2.41
C       3.60       5.24       2.98
O       4.94       7.91       4.19
C       4.55       8.71       3.31
C       9.60       7.82       2.98
C       4.92       3.97       6.14
C       4.00       4.20       4.96
O       7.32       4.09       3.57
