15

Cd       0.00       8.43       0.00
C      -1.04       7.72       2.91
C       1.04       9.13      -2.91
N       1.30       9.42      -1.64
C       2.47      10.03      -1.40
I       2.55       7.60       1.52
C      -2.47       6.82       1.40
I      -2.55       9.25      -1.52
C      -0.70       6.14      -2.37
C       0.70      10.71       2.37
N       0.05       6.41      -1.34
C       0.98       5.57      -1.18
C      -0.98      11.28       1.18
N      -1.30       7.43       1.64
N      -0.05      10.44       1.34
