11

O       1.08       0.95       7.17
Cd      -0.51       2.48       7.71
C      -3.12       1.68       7.14
O      -2.08       1.08       6.78
N      -0.10       2.49       4.53
N      -0.34       3.39       5.56
C      -0.37       4.59       5.05
N      -0.57       4.29       9.12
C       0.39       5.22       9.20
C      -1.65       4.46       9.89
C       2.11       1.67       7.27
