22

Al      18.15      13.76       7.94
Al      18.15      16.76       7.94
Al      18.15      15.26      10.55
O      16.90      12.94       8.87
O      16.90      16.37       6.77
O      16.90      16.47      10.79
O      16.90      14.05      10.80
O      16.90      17.59       8.87
O      16.90      14.15       6.77
O      19.41      12.94       8.87
O      19.41      16.37       6.77
C      16.46      13.12      10.05
C      16.46      15.26       6.34
O      19.41      17.59       8.87
O      19.41      14.15       6.77
O      18.15      15.26       8.81
C      19.85      13.12      10.05
C      19.85      15.26       6.34
C      16.46      17.40      10.05
C      19.85      17.40      10.05
O      19.41      16.47      10.79
O      19.41      14.05      10.80
