11

C       0.97       0.78      26.04
O       5.03       2.77      27.87
C       2.40       4.17      24.84
Zn       3.50       1.99      26.56
O       1.53       1.80      26.48
C       4.18       3.40      28.53
C       5.42      -0.27      26.01
O       4.80       0.76      25.68
C       3.72       2.58      23.58
C       4.80       4.22      25.06
N       3.62       3.34      24.89
