54

Zr      20.35      11.75       1.45
Zr      23.91      13.80      -1.45
Zr      22.13      14.83       1.45
Zr      22.13      10.73      -1.45
Zr      20.35      13.80      -1.45
Zr      23.91      11.75       1.45
H      22.13       9.56       1.14
H      24.92      14.39       1.14
H      22.13      12.78      -3.41
H      19.35      14.39       1.14
C      24.31      14.04       3.72
C      24.45       8.92      -0.05
C      19.95      16.71      -0.05
C      19.82      11.44      -3.61
C      22.13      15.45      -3.61
C      26.63      12.70      -0.05
C      17.64      12.70      -0.05
C      22.13      10.26       3.72
C      19.82       8.92      -0.05
C      24.45      11.44      -3.61
C      19.95      14.04       3.72
C      24.31      16.71      -0.05
O      24.61      12.90       3.23
O      24.70       9.75       0.89
O      19.66      15.86      -0.96
O      19.57      12.61      -3.15
O      23.27      15.08      -3.15
O      26.04      13.38      -0.96
O      18.23      12.07       0.89
O      21.00      10.57       3.23
O      20.70       9.09      -0.96
O      23.56      10.64      -3.15
O      20.79      14.86       3.23
O      23.47      16.51       0.89
O      23.27      10.57       3.23
O      26.04      12.07       0.89
O      18.23      13.38      -0.96
O      21.00      15.08      -3.15
O      20.70      10.64      -3.15
O      23.56       9.09      -0.96
O      20.79      16.51       0.89
O      23.47      14.86       3.23
O      24.61      15.86      -0.96
O      24.70      12.61      -3.15
O      19.66      12.90       3.23
O      19.57       9.75       0.89
O      22.13      10.48       0.81
O      24.12      13.93       0.81
O      22.13      12.78      -2.44
O      20.14      13.93       0.81
O      22.13      14.47      -0.60
O      20.67      11.93      -0.60
O      22.13      12.78       1.79
O      23.60      11.93      -0.60
