19

C       9.10       0.74      12.68
C       9.50       1.77      14.66
O      11.46       1.29      15.89
Nd      12.29      -0.29      14.14
C      10.41       2.00      15.85
C      15.36       0.34      12.11
O      13.19      -2.55      13.90
C      10.04      -2.74      13.01
C      15.09      -1.85      12.68
O      10.44      -1.94      13.89
O      14.23      -0.13      15.61
O      12.00      -1.44      16.30
C      14.24      -2.92      13.35
C      14.28      -0.78      16.68
C      12.94      -1.40      17.15
O      12.81       1.88      13.27
C      13.23       3.05      13.35
N       9.89       0.89      13.74
N      14.65      -0.59      12.75
