11

C       8.51       8.98      21.85
C       6.11       8.93      21.86
C       7.27      10.84      22.76
O       6.24       9.89      18.42
Zn       7.29      10.72      19.77
C       5.37      13.02      19.77
C       6.83       8.83      18.04
N       7.29       9.81      21.67
O       5.96      12.06      20.34
O       9.24      10.87      19.58
C       9.81      11.97      19.80
