14

C       0.00      11.18      14.26
C       0.00      11.18      19.29
C      -2.51      11.18      16.78
C       2.51      11.18      16.78
O       0.00      10.07      14.84
O       0.00      10.07      18.72
O      -1.94      10.07      16.78
O       1.94      10.07      16.78
O       1.94      12.30      16.78
O      -1.94      12.30      16.78
O       0.00      12.30      18.72
O       0.00      12.30      14.84
Cu       0.00       9.87      16.78
Cu       0.00      12.50      16.78
