14

Cu      12.50      22.37       5.59
Cu       9.87      22.37       5.59
C      11.18      22.37       8.10
C      11.18      22.37       3.08
C      11.18      24.88       5.59
C      11.18      19.86       5.59
O      12.30      22.37       7.53
O      12.30      22.37       3.65
O      12.30      24.31       5.59
O      12.30      20.43       5.59
O      10.07      20.43       5.59
O      10.07      24.31       5.59
O      10.07      22.37       3.65
O      10.07      22.37       7.53
