20

Zn       1.20       5.45      22.88
Zn      -1.79       5.25      22.89
C      -0.15       3.60      20.99
O      -1.54       6.54      21.33
O       0.66       6.92      21.56
O      -1.23       3.80      21.59
O       0.95       4.16      21.32
O       0.91       6.71      24.42
O      -1.30       6.70      24.24
C       3.91       4.80      21.88
C      -0.22       7.04      24.79
O       0.75       3.95      24.22
O      -1.47       3.97      24.43
C       3.92       5.86      23.95
C      -0.45       7.09      21.02
C      -4.49       4.71      23.91
C      -4.51       5.77      21.93
N       3.26       5.36      22.92
N      -3.83       5.23      22.91
C      -0.32       3.65      24.81
