23

Cd       7.92       0.52       2.99
Cd      10.95       5.85       5.34
Cd       5.20       3.20       3.59
C       9.47       3.19       4.17
C       7.99       4.60       4.70
C       5.26      -1.07       4.17
C       3.83       0.39       4.70
C      11.30       5.51       8.64
C       9.82       6.97       8.27
C       5.47       2.93       0.29
C       6.95       1.47      -0.07
N       8.31       2.63       3.85
N       7.33       3.56       4.22
N       9.32       4.42       4.71
N       5.81       0.10       3.85
N       4.87       1.06       4.22
N       4.03      -0.94       4.71
N      10.65       6.14       7.58
N       5.89       2.52       1.45
N       6.84       1.58       1.19
Cl       9.09      -0.64       5.00
Cl       3.57       4.80       2.61
Cl       4.33       4.05       5.96
