11

C       0.21       8.84      13.26
C      -1.03      12.52      10.74
C       1.99       8.08       9.57
Zn       0.89      10.25      11.29
C       0.67       9.67       8.31
C      -0.41       8.03       9.79
N       0.77       8.91       9.62
O      -0.64       9.48      12.60
C       3.42      11.47      10.77
O       2.86      10.45      11.21
O      -0.41      11.48      10.41
