35

Na       6.47       3.34      12.33
Na       5.77       8.90      12.33
Na       3.34       5.77      12.48
Na       8.90       6.47      12.48
Na       0.00       6.12      12.24
Na       6.12       0.00      12.57
S       5.94       9.64      15.37
S      10.03       3.23      12.40
S       6.30       2.61      15.37
S       2.22       9.02      12.40
S       9.64       6.30       9.44
S       3.23       2.22      12.41
S       2.61       5.94       9.44
S       9.02      10.03      12.41
Cl       6.12       6.12      12.41
O       8.81       4.04      12.45
O      11.22       4.03      12.23
O       6.01       8.26      14.91
O       5.62      10.53      14.28
O      10.84       7.16      13.84
O       3.44       8.21      12.45
O       1.02       8.21      12.23
O       6.23       3.99      14.91
O       6.62       1.72      14.28
O       1.41       5.08      13.84
O       4.04       3.44      12.36
O       4.03       1.02      12.58
O       8.26       6.23       9.90
O      10.53       6.62      10.53
O       7.16       1.41      10.97
O       8.21       8.81      12.36
O       8.21      -1.02      12.58
O       3.99       6.01       9.90
O       1.72       5.62      10.53
O       5.08      10.84      10.97
