13

Tb       5.57      -2.05       7.03
O       4.73      -4.23       7.81
O       6.40       0.13       7.81
C       3.50      -4.29       7.57
O       3.72      -0.81       6.33
C       7.63       0.19       7.57
O       6.75      -2.68       9.06
O       7.41      -3.29       6.33
O       4.39      -1.42       9.06
C       3.07       0.19       5.99
C       8.06      -4.29       5.99
C       6.22      -2.46      10.17
C       4.91      -1.64      10.17
