13

O       3.91      16.75      22.55
Zn       5.07      18.41      22.16
N       6.86      17.38      22.10
O       5.03      18.81      24.13
O       4.44      18.27      20.25
C       4.03      19.13      24.85
O       5.60      20.36      21.87
C       3.36      18.74      19.80
C       6.80      16.42      20.97
C       7.04      16.64      23.36
C       8.09      18.23      21.90
C       4.85      21.29      22.21
C       2.65      16.66      22.53
