17

C       1.76       7.36       0.97
C       4.55       8.71       3.31
Nd       3.99      10.06       0.28
O       2.26       8.50       1.10
C       6.61      11.61       2.41
O       4.28      11.00      -1.99
O       1.91      10.14      -1.08
C       3.29      11.17      -2.72
C       1.95      10.54      -2.26
C       1.89      11.21       2.98
C       3.37       9.60       3.66
O       5.00       8.82       2.14
N       5.49      11.84       1.72
N       2.99      10.50       2.72
O       3.20      12.36       0.36
C       5.04      13.09       1.70
C       3.73      13.33       0.97
