17

Nd       1.50       4.08       0.28
O       0.49       2.85       2.14
C       1.76       7.36       0.97
C       0.45       7.12       1.70
O       2.29       6.39       0.36
N       2.50       4.53       2.72
N       0.01       5.86       1.72
C       2.21       5.20      -2.72
O       1.22       5.03      -1.99
C       3.55       4.57      -2.26
O       3.58       4.16      -1.08
C       3.60       5.24       2.98
C       3.73       1.39       0.97
C       2.12       3.63       3.66
C       0.95       2.74       3.31
O       3.23       2.53       1.10
C      -1.12       5.63       2.41
