23

Zn      19.42      13.40       9.85
Zn      19.42      16.14       8.26
Zn      22.00      14.31       8.26
Zn      19.42      13.40       6.68
C      22.13      17.24       8.26
O      22.74      13.42       9.80
O      20.06      14.31       8.26
O      18.33      14.53      10.96
O      20.84      17.43       8.26
C      22.13      12.85      10.80
C      22.13      12.85       5.73
O      18.33      16.54       9.80
O      20.84      12.75      10.96
O      22.74      16.09       8.26
O      20.84      12.75       5.56
C      17.99      15.77      10.80
O      18.33      14.53       5.56
O      18.33      11.87       7.10
O      18.33      11.87       9.43
C      17.99      15.77       5.73
C      17.99      11.39       8.26
O      18.33      16.54       6.73
O      22.74      13.42       6.73
