544

Cu       1.31       0.00       5.59
Cu      21.05      22.37       5.59
Cu       1.31      11.18       5.59
Cu      21.05      11.18       5.59
Cu      12.50      22.37       5.59
Cu       9.87      22.37       5.59
Cu      12.50      11.18       5.59
Cu       9.87      11.18       5.59
Cu       1.31      22.37      39.15
Cu      21.05      22.37      39.15
Cu       1.31      11.18      39.15
Cu      21.05      11.18      39.15
Cu       9.87      22.37      39.15
Cu      12.50      22.37      39.15
Cu       9.87      11.18      39.15
Cu      12.50      11.18      39.15
Cu       0.00      21.05      16.78
Cu       0.00       1.31      16.78
Cu       0.00       9.87      16.78
Cu       0.00      12.50      16.78
Cu      11.18      21.05      16.78
Cu      11.18       1.31      16.78
Cu      11.18       9.87      16.78
Cu      11.18      12.50      16.78
Cu       0.00      21.05      27.96
Cu       0.00       1.31      27.96
Cu       0.00       9.87      27.96
Cu       0.00      12.50      27.96
Cu      11.18       1.31      27.96
Cu      11.18      21.05      27.96
Cu      11.18      12.50      27.96
Cu      11.18       9.87      27.96
H      18.12      13.48      27.61
H      18.12       8.89      28.32
H      15.44       8.89      28.32
H      15.44      13.48      27.61
H       4.25      13.48      27.60
H       4.25       8.89      28.32
H       6.93       8.89      28.32
H       6.93      13.48      27.60
H      18.12      22.37      30.28
H      18.12      22.37      25.64
H      15.44      22.37      25.64
H      15.44      22.37      30.28
H       4.25      20.70      26.35
H       4.25       1.67      29.57
H       6.93       1.67      29.57
H       6.93      20.70      26.35
H      13.22      12.30      21.03
H       9.15      10.07      21.03
H       9.15      10.07      23.71
H      13.22      12.30      23.71
H      11.18       2.32      21.03
H      11.18      20.05      21.03
H      11.18      20.05      23.71
H      11.18       2.32      23.71
H       0.21       8.87      21.03
H      22.15      13.50      21.03
H      22.15      13.50      23.71
H       0.21       8.87      23.71
H      18.12      13.50      16.85
H      18.12       8.86      16.70
H      15.44       8.86      16.70
H      15.44      13.50      16.85
H       4.25      11.47      19.08
H       4.25      10.90      14.47
H       6.93      10.90      14.47
H       6.93      11.47      19.08
H       2.27      21.90      21.03
H      20.10       0.47      21.03
H      20.10       0.47      23.71
H       2.27      21.90      23.71
H      18.12      22.14      19.09
H      18.12       0.23      14.47
H      15.44       0.23      14.47
H      15.44      22.14      19.09
H       4.25       0.00      14.46
H       4.25       0.00      19.10
H       6.93      22.37      19.10
H       6.93      22.37      14.46
H       9.58      12.86      34.89
H      12.79       9.50      34.89
H      12.79       9.50      32.21
H       9.58      12.86      32.21
H      11.64       2.28      34.89
H      10.73      20.09      34.89
H      10.73      20.09      32.21
H      11.64       2.28      32.21
H      13.51      18.12      39.15
H       8.86      18.12      39.15
H       8.86      15.44      39.15
H      13.51      15.44      39.15
H      13.51       4.25      39.15
H       8.86       4.25      39.14
H       8.86       6.93      39.14
H      13.51       6.93      39.15
H      21.68      13.40      34.89
H       0.69       8.97      34.89
H       0.69       8.97      32.21
H      21.68      13.40      32.21
H      21.00      20.50      34.89
H       1.37       1.87      34.89
H       1.37       1.87      32.21
H      21.00      20.50      32.21
H      20.05      18.12      39.10
H       2.32      18.12      39.19
H       2.32      15.44      39.19
H      20.05      15.44      39.10
H      20.15       4.25      39.82
H       2.22       4.25      38.48
H       2.22       6.93      38.48
H      20.15       6.93      39.82
H      11.20      13.51       9.84
H      11.17       8.86       9.84
H      11.17       8.86      12.52
H      11.20      13.51      12.52
H      11.19       8.86       1.34
H      11.18      13.51       1.34
H      11.18      13.51      43.40
H      11.19       8.86      43.40
H      13.38       0.74       9.84
H       8.99      21.63       9.84
H       8.99      21.63      12.52
H      13.38       0.74      12.52
H      11.17      20.05       1.34
H      11.20       2.32       1.34
H      11.20       2.32      43.40
H      11.17      20.05      43.40
H      11.18      18.12       7.91
H      11.18      18.12       3.27
H      11.18      15.44       3.27
H      11.18      15.44       7.91
H       9.10       4.25       4.56
H      13.27       4.25       6.62
H      13.27       6.93       6.62
H       9.10       6.93       4.56
H      20.08      10.80      12.52
H       2.29      11.57      12.52
H       2.29      11.57       9.84
H      20.08      10.80       9.84
H      22.35      13.51      43.40
H       0.02       8.86      43.40
H       0.02       8.86       1.34
H      22.35      13.51       1.34
H      20.90      20.57       9.84
H       1.47       1.80       9.84
H       1.47       1.80      12.52
H      20.90      20.57      12.52
H       0.01      20.05       1.34
H      22.36       2.32       1.34
H      22.36       2.32      43.40
H       0.01      20.05      43.40
H       0.00      18.12       7.91
H      22.37      18.12       3.27
H      22.37      15.44       3.27
H       0.00      15.44       7.91
H       1.92       4.25       4.29
H      20.45       4.25       6.90
H      20.45       6.93       6.90
H       1.92       6.93       4.29
C      22.37       0.00       8.10
C       0.00      22.37       3.08
C       0.00       2.51       5.59
C       0.00      19.86       5.59
C       0.00      11.18       3.08
C      22.37      11.18       8.10
C       0.00       8.67       5.59
C       0.00      13.70       5.59
C      11.18      22.37       8.10
C      11.18      22.37       3.08
C      11.18       2.51       5.59
C      11.18      19.86       5.59
C      11.18      11.18       3.08
C      11.18      11.18       8.10
C      11.18       8.67       5.59
C      11.18      13.70       5.59
C       0.00      22.37      41.66
C       0.00      22.37      36.63
C       0.00       2.51      39.15
C       0.00      19.86      39.15
C       0.00      11.18      41.66
C       0.00      11.18      36.63
C       0.00      13.70      39.15
C       0.00       8.67      39.15
C      11.18      22.37      41.66
C      11.18      22.37      36.63
C      11.18      19.86      39.15
C      11.18       2.51      39.15
C      11.18      11.18      36.63
C      11.18      11.18      41.66
C      11.18      13.70      39.15
C      11.18       8.67      39.15
C       0.00       0.00      14.26
C       0.00       0.00      19.29
C      19.86       0.00      16.78
C       2.51       0.00      16.78
C       0.00      11.18      14.26
C       0.00      11.18      19.29
C      19.86      11.18      16.78
C       2.51      11.18      16.78
C      11.18      22.37      14.26
C      11.18      22.37      19.29
C       8.67      22.37      16.78
C      13.70      22.37      16.78
C      11.18      11.18      14.26
C      11.18      11.18      19.29
C       8.67      11.18      16.78
C      13.70      11.18      16.78
C       0.00      22.37      30.47
C       0.00      22.37      25.45
C       2.51      22.37      27.96
C      19.86      22.37      27.96
C       0.00      11.18      25.45
C       0.00      11.18      30.47
C      19.86      11.18      27.96
C       2.51      11.18      27.96
C      11.18      22.37      30.47
C      11.18      22.37      25.45
C       8.67      22.37      27.96
C      13.70      22.37      27.96
C      11.18      11.18      30.47
C      11.18      11.18      25.45
C       8.67      11.18      27.96
C      13.70      11.18      27.96
C      17.55      12.50      27.76
C      18.32      11.18      27.96
C      17.55       9.87      28.17
C      16.01       9.87      28.17
C      15.24      11.18      27.96
C      16.01      12.50      27.76
C       4.82      12.50      27.76
C       4.05      11.18      27.96
C       4.82       9.87      28.17
C       6.36       9.87      28.17
C       7.13      11.18      27.96
C       6.36      12.50      27.76
C      17.55      22.37      29.30
C      18.32      22.37      27.96
C      17.55      22.37      26.63
C      16.01      22.37      26.63
C      15.24      22.37      27.96
C      16.01      22.37      29.30
C       4.82      21.41      27.04
C       4.05      22.37      27.96
C       4.82       0.96      28.89
C       6.36       0.96      28.89
C       7.13      22.37      27.96
C       6.36      21.41      27.04
C      12.36      11.82      21.60
C      11.18      11.18      20.83
C      10.01      10.55      21.60
C      10.01      10.55      23.14
C      11.18      11.18      23.91
C      12.36      11.82      23.14
C      11.18       1.33      21.60
C      11.18      22.37      20.83
C      11.18      21.04      21.60
C      11.18      21.04      23.14
C      11.18      22.37      23.91
C      11.18       1.33      23.14
C       0.12       9.86      21.60
C       0.00      11.18      20.83
C      22.25      12.51      21.60
C      22.25      12.51      23.14
C       0.00      11.18      23.91
C       0.12       9.86      23.14
C      17.55      12.52      16.82
C      18.32      11.18      16.78
C      17.55       9.85      16.74
C      16.01       9.85      16.74
C      15.24      11.18      16.78
C      16.01      12.52      16.82
C       4.82      11.35      18.10
C       4.05      11.18      16.78
C       4.82      11.02      15.45
C       6.36      11.02      15.45
C       7.13      11.18      16.78
C       6.36      11.35      18.10
C       1.31      22.10      21.60
C       0.00       0.00      20.83
C      21.06       0.27      21.60
C      21.06       0.27      23.14
C       0.00      22.37      23.91
C       1.31      22.10      23.14
C      17.55      22.24      18.10
C      18.32       0.00      16.78
C      17.55       0.13      15.45
C      16.01       0.13      15.45
C      15.24      22.37      16.78
C      16.01      22.24      18.10
C       4.82       0.00      15.44
C       4.05       0.00      16.78
C       4.82       0.00      18.11
C       6.36       0.00      18.11
C       7.13      22.37      16.78
C       6.36       0.00      15.44
C      10.26      12.15      34.32
C      11.18      11.18      35.09
C      12.10      10.22      34.32
C      12.10      10.22      32.78
C      11.18      11.18      32.01
C      10.26      12.15      32.78
C      11.45       1.31      34.32
C      11.18      22.37      35.09
C      10.92      21.06      34.32
C      10.92      21.06      32.78
C      11.18      22.37      32.01
C      11.45       1.31      32.78
C      12.52      17.55      39.15
C      11.18      18.32      39.15
C       9.85      17.55      39.15
C       9.85      16.01      39.15
C      11.18      15.24      39.15
C      12.52      16.01      39.15
C      12.52       4.82      39.15
C      11.18       4.05      39.15
C       9.85       4.82      39.14
C       9.85       6.36      39.14
C      11.18       7.13      39.15
C      12.52       6.36      39.15
C      21.97      12.46      34.32
C       0.00      11.18      35.09
C       0.40       9.91      34.32
C       0.40       9.91      32.78
C       0.00      11.18      32.01
C      21.97      12.46      32.78
C      21.58      21.29      34.32
C       0.00      22.37      35.09
C       0.79       1.08      34.32
C       0.79       1.08      32.78
C       0.00      22.37      32.01
C      21.58      21.29      32.78
C      21.04      17.55      39.12
C       0.00      18.32      39.15
C       1.33      17.55      39.17
C       1.33      16.01      39.17
C       0.00      15.24      39.15
C      21.04      16.01      39.12
C      21.09       4.82      39.53
C       0.00       4.05      39.15
C       1.28       4.82      38.76
C       1.28       6.36      38.76
C       0.00       7.13      39.15
C      21.09       6.36      39.53
C      11.20      12.52      10.41
C      11.18      11.18       9.64
C      11.17       9.85      10.41
C      11.17       9.85      11.95
C      11.18      11.18      12.72
C      11.20      12.52      11.95
C      11.19       9.85       0.77
C      11.18      11.18       1.54
C      11.18      12.52       0.77
C      11.18      12.52      43.97
C      11.18      11.18      43.20
C      11.19       9.85      43.97
C      12.45       0.43      10.41
C      11.18      22.37       9.64
C       9.92      21.94      10.41
C       9.92      21.94      11.95
C      11.18      22.37      12.72
C      12.45       0.43      11.95
C      11.17      21.04       0.77
C      11.18      22.37       1.54
C      11.20       1.33       0.77
C      11.20       1.33      43.97
C      11.18      22.37      43.20
C      11.17      21.04      43.97
C      11.18      17.55       6.93
C      11.18      18.32       5.59
C      11.18      17.55       4.26
C      11.18      16.01       4.26
C      11.18      15.24       5.59
C      11.18      16.01       6.93
C       9.99       4.82       5.00
C      11.18       4.05       5.59
C      12.38       4.82       6.18
C      12.38       6.36       6.18
C      11.18       7.13       5.59
C       9.99       6.36       5.00
C      21.05      10.97      11.95
C       0.00      11.18      12.72
C       1.32      11.40      11.95
C       1.32      11.40      10.41
C       0.00      11.18       9.64
C      21.05      10.97      10.41
C      22.36      12.52      43.97
C       0.00      11.18      43.20
C       0.01       9.85      43.97
C       0.01       9.85       0.77
C       0.00      11.18       1.54
C      22.36      12.52       0.77
C      21.53      21.34      10.41
C       0.00       0.00       9.64
C       0.84       1.03      10.41
C       0.84       1.03      11.95
C       0.00       0.00      12.72
C      21.53      21.34      11.95
C       0.01      21.04       0.77
C       0.00      22.37       1.54
C      22.36       1.33       0.77
C      22.36       1.33      43.97
C       0.00      22.37      43.20
C       0.01      21.04      43.97
C       0.00      17.55       6.93
C       0.00      18.32       5.59
C      22.37      17.55       4.26
C      22.37      16.01       4.26
C       0.00      15.24       5.59
C       0.00      16.01       6.93
C       1.10       4.82       4.84
C       0.00       4.05       5.59
C      21.27       4.82       6.34
C      21.27       6.36       6.34
C       0.00       7.13       5.59
C       1.10       6.36       4.84
O       1.11       0.00       7.53
O       1.11       0.00       3.65
O       1.11       1.94       5.59
O       1.11      20.43       5.59
O      21.26      20.43       5.59
O      21.26       1.94       5.59
O      21.26      22.37       3.65
O      21.26      22.37       7.53
O       1.11      11.18       3.65
O       1.11      11.18       7.53
O       1.11       9.24       5.59
O       1.11      13.13       5.59
O      21.26      13.13       5.59
O      21.26       9.24       5.59
O      21.26      11.18       7.53
O      21.26      11.18       3.65
O      12.30      22.37       7.53
O      12.30      22.37       3.65
O      12.30       1.94       5.59
O      12.30      20.43       5.59
O      10.07      20.43       5.59
O      10.07       1.94       5.59
O      10.07      22.37       3.65
O      10.07      22.37       7.53
O      12.30      11.18       3.65
O      12.30      11.18       7.53
O      12.30       9.24       5.59
O      12.30      13.12       5.59
O      10.07      13.13       5.59
O      10.07       9.24       5.59
O      10.07      11.18       7.53
O      10.07      11.18       3.65
O       1.11      22.37      41.09
O       1.11      22.37      37.21
O       1.11       1.94      39.15
O       1.11      20.43      39.15
O      21.26      20.43      39.15
O      21.26       1.94      39.15
O      21.26      22.37      37.21
O      21.26      22.37      41.09
O       1.11      11.18      41.09
O       1.11      11.18      37.21
O       1.11      13.12      39.15
O       1.11       9.24      39.15
O      21.26       9.24      39.15
O      21.26      13.12      39.15
O      21.26      11.18      37.21
O      21.26      11.18      41.09
O      10.07      22.37      41.09
O      10.07      22.37      37.21
O      10.07      20.43      39.15
O      10.07       1.94      39.15
O      12.30       1.94      39.15
O      12.30      20.43      39.15
O      12.30      22.37      37.21
O      12.30      22.37      41.09
O      10.07      11.18      37.21
O      10.07      11.18      41.09
O      10.07      13.12      39.15
O      10.07       9.24      39.15
O      12.30       9.24      39.15
O      12.30      13.12      39.15
O      12.30      11.18      41.09
O      12.30      11.18      37.21
O       0.00      21.26      14.84
O       0.00      21.26      18.72
O      20.43      21.26      16.78
O       1.94      21.26      16.78
O       1.94       1.11      16.78
O      20.43       1.11      16.78
O       0.00       1.11      18.72
O       0.00       1.11      14.84
O       0.00      10.07      14.84
O       0.00      10.07      18.72
O      20.43      10.07      16.78
O       1.94      10.07      16.78
O       1.94      12.30      16.78
O      20.43      12.30      16.78
O       0.00      12.30      18.72
O       0.00      12.30      14.84
O      11.18      21.26      14.84
O      11.18      21.26      18.72
O       9.24      21.26      16.78
O      13.13      21.26      16.78
O      13.13       1.11      16.78
O       9.24       1.11      16.78
O      11.18       1.11      18.72
O      11.18       1.11      14.84
O      11.18      10.07      14.84
O      11.18      10.07      18.72
O       9.24      10.07      16.78
O      13.13      10.07      16.78
O      13.13      12.30      16.78
O       9.24      12.30      16.78
O      11.18      12.30      18.72
O      11.18      12.30      14.84
O       0.00      21.26      29.90
O       0.00      21.26      26.02
O       1.94      21.26      27.96
O      20.43      21.26      27.96
O      20.43       1.11      27.96
O       1.94       1.11      27.96
O       0.00       1.11      26.02
O       0.00       1.11      29.90
O       0.00      10.07      26.02
O       0.00      10.07      29.90
O      20.43      10.07      27.96
O       1.94      10.07      27.96
O       1.94      12.30      27.96
O      20.43      12.30      27.96
O       0.00      12.30      29.90
O       0.00      12.30      26.02
O      11.18       1.11      29.90
O      11.18       1.11      26.02
O       9.24       1.11      27.96
O      13.13       1.11      27.96
O      13.13      21.26      27.96
O       9.24      21.26      27.96
O      11.18      21.26      26.02
O      11.18      21.26      29.90
O      11.18      12.30      29.90
O      11.18      12.30      26.02
O       9.24      12.30      27.96
O      13.13      12.30      27.96
O      13.13      10.07      27.96
O       9.24      10.07      27.96
O      11.18      10.07      26.02
O      11.18      10.07      29.90
