14

Cu       1.31       0.00       5.59
O       1.11       0.00       3.65
O       1.11       1.94       5.59
O       1.11      -1.94       5.59
O       1.11       0.00       7.53
C       0.00       0.00       8.10
C       0.00       0.00       3.08
C       0.00       2.51       5.59
C       0.00      -2.51       5.59
O      -1.11      -0.00       7.53
Cu      -1.31      -0.00       5.59
O      -1.11       0.00       3.65
O      -1.11      -1.94       5.59
O      -1.11       1.94       5.59
