36

C       3.48      15.26       5.07
C       4.10      15.60       3.71
C       3.25      15.52       2.43
C       1.77      15.10       2.52
C       1.16      14.73       3.88
C       2.01      14.82       5.16
C       0.91      15.06       1.24
C       1.52      15.46      -0.11
C       0.65      15.46      -1.38
C      -0.83      15.06      -1.29
C      -1.44      14.63       0.06
C      -0.57      14.63       1.33
C      -1.71      15.10      -2.56
C      -1.10      15.52      -3.90
C      -1.98      15.60      -5.16
C      -3.48      15.26      -5.07
C      -4.09      14.82      -3.72
C      -3.21      14.74      -2.47
H       5.20      15.92       3.64
H       3.71      15.79       1.42
H       0.06      14.40       3.94
H       1.55      14.55       6.17
H       2.62      15.77      -0.17
H       1.10      15.77      -2.38
H      -2.54      14.32       0.12
H      -1.02      14.32       2.33
H       0.01      15.78      -3.97
H      -1.53      15.91      -6.16
H      -5.20      14.57      -3.66
H      -3.66      14.42      -1.47
O       4.80      14.15       6.77
O       4.80      16.37       6.77
C       4.35      15.26       6.34
O      -4.80      16.37      -6.77
C      -4.35      15.26      -6.34
O      -4.80      14.15      -6.77
