18

C      12.59      13.23      10.80
H      12.31      14.75       7.96
C      13.39      14.13      11.45
C      13.77      13.91      12.90
H      12.31      12.43      11.26
O      10.89      12.76       7.67
C      13.77      15.27      10.80
O      13.33      12.89      13.45
H      14.32      15.92      11.26
C      13.39      15.51       9.51
C      13.77      16.80       8.81
O      14.43      17.61       9.47
O      10.89      11.49       9.47
O      13.33      16.97       7.67
O      14.43      14.80      13.45
C      12.19      13.44       9.51
C      11.26      12.46       8.81
C      12.59      14.59       8.87
