16

O      11.18       1.11      14.84
C      12.45       0.43      10.41
C      11.18      -0.00       9.64
C       9.92      -0.43      10.41
C       9.92      -0.43      11.95
C      11.18      -0.00      12.72
C      12.45       0.43      11.95
C      11.18      -0.00      14.26
C      11.18      -0.00       8.10
O      12.30      -0.00       7.53
O      11.18      -1.11      14.84
O      10.07      -0.00       7.53
H      13.38       0.74       9.84
H       8.99      -0.74       9.84
H       8.99      -0.74      12.52
H      13.38       0.74      12.52
