16

O       1.11       1.94      39.15
O      -1.11       1.94      39.15
O       1.11       9.24      39.15
H      -2.22       4.25      39.82
H       2.22       4.25      38.48
H       2.22       6.93      38.48
H      -2.22       6.93      39.82
O      -1.11       9.24      39.15
C       0.00       2.51      39.15
C       0.00       4.05      39.15
C      -1.28       4.82      39.53
C       1.28       4.82      38.76
C       0.00       7.13      39.15
C      -1.28       6.36      39.53
C       1.28       6.36      38.76
C       0.00       8.67      39.15
