10

O      -1.16       4.91       7.24
O       0.72       3.97       7.81
H      -2.21       2.68       7.71
O      -0.84      -0.81       7.24
H       0.21       1.42       7.71
O      -2.73       0.13       7.81
C      -0.51       3.91       7.57
C      -1.28       2.64       7.65
C      -1.49       0.19       7.57
C      -0.72       1.46       7.65
