22

H       0.61      20.53      24.67
H       1.38      21.80      24.07
H      -0.62      19.29      21.59
H      -0.61      19.02      23.17
H       1.35      22.25      21.67
H       0.56      21.27      20.68
H      -1.82      20.47      24.64
H      -2.65      21.71      24.07
H      -1.47      23.64      23.14
H       0.13      23.67      23.14
H      -1.78      21.20      20.70
H      -2.61      22.17      21.67
N       0.61      20.58      22.62
N      -0.64      22.06      24.14
N      -1.84      20.55      22.62
N      -0.65      22.48      21.72
C       0.58      21.23      23.97
C      -0.62      19.72      22.48
C       0.55      21.67      21.58
C      -1.82      21.18      23.95
C      -0.66      23.08      23.05
C      -1.79      21.62      21.60
