16

O      20.43      21.26      27.96
O      20.43      23.48      27.96
H      18.12      22.37      30.28
H      18.12      22.37      25.64
H      15.44      22.37      25.64
H      15.44      22.37      30.28
C      17.55      22.37      29.30
C      18.32      22.37      27.96
C      17.55      22.37      26.63
C      16.01      22.37      26.63
C      15.24      22.37      27.96
C      16.01      22.37      29.30
C      19.86      22.37      27.96
O      13.13      23.48      27.96
O      13.13      21.26      27.96
C      13.70      22.37      27.96
