22

H       6.00      15.84      21.08
H       6.70      16.91      20.12
H       7.11      17.28      24.11
H       6.24      16.07      23.52
H       8.00      18.73      21.05
H       8.16      18.88      22.64
H       7.31      14.26      22.36
H       8.91      14.23      22.22
H      10.01      15.91      20.72
H       9.12      16.97      19.91
H      10.20      16.08      23.12
H       9.46      17.28      23.88
N       6.86      17.38      22.10
N       8.01      15.58      20.92
N       8.22      15.81      23.33
N       9.30      17.40      21.86
C       6.80      16.42      20.97
C       7.04      16.64      23.36
C       8.09      18.23      21.90
C       8.11      14.82      22.23
C       9.19      16.47      20.76
C       9.38      16.65      23.13
