14

C       1.95      11.32      14.99
C       1.52      10.22      16.95
C       2.66       9.49      16.80
C       3.39       9.68      15.65
C       4.57       8.79      15.28
C       0.58      10.00      18.12
H       1.71      11.98      14.39
H       2.94       8.89      17.45
O      -0.43      10.73      18.20
O       0.91       9.11      18.93
O       5.04       8.93      14.13
O       4.94       7.96      16.15
N       3.04      10.60      14.73
N       1.18      11.15      16.05
