22

H       0.78       5.76       9.49
H       0.63       5.61       7.90
H       1.47      10.24       8.18
H      -0.13      10.26       8.32
H      -1.23       8.58       9.83
H      -0.33       7.53      10.63
H      -1.41       8.41       7.42
H      -0.68       7.21       6.66
C       1.99       8.08       9.57
C       1.75       7.85       7.18
C       0.70       6.26       8.64
C       0.67       9.67       8.31
C      -0.41       8.03       9.79
C      -0.60       7.84       7.42
N       1.92       7.11       8.44
N       0.77       8.91       9.62
N       0.56       8.68       7.21
N      -0.51       7.09       8.69
H       2.78       8.66       9.46
H       2.09       7.58      10.42
H       1.68       7.21       6.44
H       2.54       8.42       7.02
