16

C      11.18      21.04      21.60
C      11.18      21.04      23.14
C      11.18      22.37      23.91
C      11.18      23.70      23.14
C      11.18      22.37      19.29
O      11.18      23.48      26.02
O      11.18      21.26      18.72
H      11.18      24.69      21.03
H      11.18      20.05      21.03
H      11.18      20.05      23.71
H      11.18      24.69      23.71
O      11.18      21.26      26.02
C      11.18      22.37      25.45
O      11.18      23.48      18.72
C      11.18      23.70      21.60
C      11.18      22.37      20.83
