14

O       8.79       2.55       4.20
C       6.61      -0.34       2.41
C       6.88       1.85       2.98
O       7.32       4.09       3.57
C       5.73       2.18       2.29
H       6.92      -1.21       2.44
H       5.44       3.06       2.23
C       5.04       1.15       1.70
N       5.49      -0.11       1.72
N       7.33       0.59       3.05
O       3.20       0.41       0.36
O       3.23       2.53       1.10
C       3.73       1.39       0.97
C       7.74       2.92       3.65
