16

C       1.74       8.68       2.54
C      -0.24       9.99      -0.77
C      -0.87       8.68      -1.27
C      -1.74       8.68      -2.54
C      -0.63       7.37      -0.50
C       0.87       8.68       1.27
C       0.63       9.99       0.50
C       0.24       7.37       0.77
O       2.19       7.57       2.97
H      -0.42      10.96      -1.34
H      -1.10       6.39      -0.87
H       0.42       6.39       1.34
H       1.10      10.96       0.87
O       2.19       9.79       2.97
O      -2.19       9.79      -2.97
O      -2.19       7.57      -2.97
