18

C      18.93      17.33       4.01
C      18.93      16.89       2.55
O      22.46      18.17       5.99
O      21.36      18.80       7.78
O      16.50      18.80       7.78
C      17.74      18.02       5.95
C      16.43      18.34       6.64
C      20.11      17.57       4.66
H      20.95      17.41       4.20
C      17.75      17.57       4.66
C      20.12      18.02       5.95
C      21.43      18.34       6.64
O      20.03      16.76       2.01
H      16.91      17.41       4.20
C      18.93      18.25       6.59
O      17.83      16.76       2.01
O      15.40      18.17       5.99
H      18.93      18.58       7.49
