28

Br       5.85      11.73      19.46
Br       6.39      13.10      23.17
O      10.18       9.78      15.12
O       8.01       9.36      15.23
O       9.54      17.64      26.39
O       7.32      17.27      26.51
C       9.04       9.93      15.59
C       8.93      10.94      16.72
C       7.70      11.08      17.40
C       9.99      11.72      17.15
C       9.86      12.60      18.16
C       7.57      11.94      18.42
C       8.60      12.66      18.88
C       8.54      13.53      20.06
C       8.43      14.17      21.06
C       8.43      14.89      22.27
C       7.57      14.55      23.35
C       9.29      15.99      22.48
C       9.34      16.67      23.70
C       7.61      15.26      24.54
C       8.47      16.33      24.73
C       8.46      17.13      25.97
H       6.95      10.55      17.14
H      10.83      11.64      16.73
H      10.58      13.17      18.40
H       9.85      16.28      21.77
H       9.98      17.36      23.83
H       7.03      15.01      25.25
