14

O       0.49       2.85       2.14
O       0.55       1.94       4.19
O       5.97       4.68       6.19
O       4.56       3.13       6.95
H       3.84       5.89       2.36
H       2.55       2.87       5.47
N       2.50       4.53       2.72
N       4.39       5.09       4.04
C       3.60       5.24       2.98
C       4.00       4.20       4.96
C       2.83       3.46       4.81
C       2.12       3.63       3.66
C       0.95       2.74       3.31
C       4.92       3.97       6.14
