19

C      11.10      11.09      11.13
N      11.71      12.02      11.87
C      10.26      13.58      10.83
C      11.27      13.28      11.71
C      10.10      11.39      10.23
N       9.68      12.66      10.07
H      11.37      10.21      11.22
H       9.71      10.71       9.72
H      11.66      13.96      12.21
C       9.28      15.79      12.13
C       8.63      14.98      13.03
N       9.50      17.08      12.37
H       8.48      14.09      12.82
N       8.21      15.45      14.22
C       9.07      17.55      13.55
H       9.18      18.45      13.75
C       8.45      16.75      14.45
H       8.19      17.11      15.27
S       9.74      15.25      10.52
