18

O      23.43       7.06       2.01
O      24.53       8.97       2.01
O      23.43       4.25       5.99
C      25.67       8.42       5.95
C      24.47       6.35       5.95
C      24.09       5.06       6.64
C      26.60       9.39       6.64
C      24.47       7.73       4.01
C      25.27       8.63       4.66
C      25.27       7.27       6.59
C      24.09       7.95       2.55
H      25.55       9.43       4.20
H      25.55       7.11       7.49
C      24.09       6.58       4.66
O      26.97      10.37       5.99
O      24.53       4.88       7.78
H      23.54       5.94       4.20
O      26.97       9.10       7.78
