34

O       5.49       5.25      15.44
O       6.50       3.38      15.98
O      11.56       3.47      16.07
O      12.59       5.11      15.05
H       6.98       6.66      14.00
H      11.02       6.61      13.85
H       9.04       3.80      15.97
H       8.44      10.69      14.42
H       7.86       9.30      14.89
H       9.42       9.59      15.00
H      11.22       7.00       9.99
H      11.43       5.09       8.69
H       7.94       3.80       9.87
H       7.64       5.63      11.24
C       6.52       4.53      15.54
C       7.82       5.14      15.07
C       7.80       6.26      14.23
C       8.99       6.76      13.77
C      10.21       6.23      14.15
C      10.22       5.12      14.99
C       9.03       4.57      15.43
C      11.54       4.51      15.41
C       8.62       9.74      14.47
C       8.82       9.19      13.11
C       9.19       7.79      11.49
C       9.39       6.55      10.73
C      10.53       6.36       9.97
C      10.64       5.22       9.20
C       8.60       4.46       9.89
C       8.41       5.55      10.71
N       8.98       7.86      12.83
N       8.93       9.89      12.01
N       9.17       8.99      10.98
N       9.68       4.29       9.12
