14

O       2.32       6.49      12.35
O       2.24       8.62      13.02
C      -0.22       8.25      14.27
C       0.46       7.21      13.69
C       1.78       7.47      12.93
C      -1.40       7.89      14.95
C      -1.12       5.73      14.36
C      -2.25       8.97      15.60
O      -3.30       8.59      16.16
O      -1.85      10.16      15.51
H      -1.43       4.86      14.38
H       0.08       9.13      14.23
N       0.00       5.96      13.68
N      -1.85       6.64      15.01
