17

O      -0.91       3.52       9.94
O       1.90       0.79       6.83
H      -2.27      -1.05       6.64
H      -0.36      -0.36       7.62
H      -1.84       3.40       7.77
H      -3.70       2.61       6.77
H       1.01       3.38       9.62
H       2.37       2.01       8.19
C      -2.15      -0.13       6.87
C      -1.05       0.26       7.43
C      -1.91       2.48       7.53
C      -2.98       2.02       6.95
C      -0.90       1.60       7.77
C       0.29       2.07       8.30
C       0.19       3.02       9.32
C       1.61       1.61       7.76
N      -3.11       0.73       6.62
