22

H       6.19      18.61      26.29
H       6.67      18.98      28.49
H       5.98      19.86      30.71
H       2.34      21.38      31.21
H       1.72      20.85      29.02
H       2.42      19.98      26.78
O       5.03      18.81      24.13
O       2.87      19.32      24.41
O       3.75      21.73      33.21
O       5.69      20.73      33.00
C       4.03      19.13      24.85
C       4.25      19.28      26.32
C       5.52      18.98      26.85
C       5.81      19.20      28.15
C       4.84      19.76      29.02
C       5.12      20.07      30.35
C       4.19      20.67      31.16
C       2.98      20.96      30.65
C       2.60      20.67      29.33
C       3.56      20.09      28.46
C       3.29      19.80      27.13
C       4.61      21.09      32.55
