16

O       1.11      22.37      41.09
C       0.00      22.37      47.82
O       1.11      22.37      48.39
O      -1.11      22.37      48.39
O      -1.11      22.37      41.09
C       0.01      21.04      45.51
C       0.00      22.37      46.28
C       0.00      22.37      41.66
C      -0.01      23.70      43.97
C       0.00      22.37      43.20
C       0.01      21.04      43.97
C      -0.01      23.70      45.51
H      -0.01      24.69      46.08
H      -0.01      24.69      43.40
H       0.01      20.05      46.08
H       0.01      20.05      43.40
