36

C       8.62      -3.24      15.75
C       9.70      -2.87      14.73
C      10.63      -3.96      14.15
C      10.47      -5.42      14.61
C       9.40      -5.79      15.66
C       8.48      -4.70      16.23
C      11.37      -6.52      14.01
C      12.41      -6.15      12.94
C      13.28      -7.25      12.30
C      13.11      -8.71      12.74
C      12.09      -9.08      13.84
C      11.22      -7.98      14.47
C      13.95      -9.81      12.08
C      14.98      -9.44      10.99
H       9.82      -1.79      14.38
H      11.42      -3.69      13.38
H       9.30      -6.87      16.01
H       7.68      -4.97      17.00
H      12.53      -5.06      12.61
H      14.04      -6.98      11.50
C      13.76     -11.29      12.48
H      10.46      -8.25      15.28
H      15.13      -8.35      10.70
C      15.80     -10.55      10.30
C      14.57     -12.39      11.78
H      13.01     -11.56      13.30
O       7.31      -1.21      15.64
H      16.55     -10.27       9.49
O       7.31      -2.32      17.57
H      14.42     -13.48      12.08
C       7.75      -2.14      16.39
O      16.90     -14.05      10.80
C      15.59     -12.02      10.68
C      16.46     -13.12      10.05
O      16.90     -12.94       8.87
H      11.97     -10.16      14.17
