22

C       9.15      17.61       9.58
C       8.93      17.46      11.05
C       7.66      17.76      11.58
C       7.37      17.54      12.88
C       8.34      16.98      13.75
C       8.05      16.67      15.08
C       8.99      16.07      15.89
C      10.20      15.78      15.37
C      10.58      16.07      14.06
C       9.61      16.64      13.19
C       9.88      16.93      11.86
C       8.57      15.65      17.28
H       6.99      18.12      11.02
H       6.50      17.75      13.22
H       7.20      16.88      15.44
H      10.83      15.35      15.94
H      11.46      15.89      13.75
H      10.75      16.76      11.51
O       8.15      17.93       8.86
O      10.31      17.42       9.14
O       9.42      15.01      17.94
O       7.48      16.01      17.73
