20

C       7.62      12.17      27.38
C       7.73      14.39      28.00
C       9.09      14.35      27.98
C       9.02      12.09      27.33
C       9.76      13.18      27.78
C      11.27      13.13      27.84
C      11.95      13.86      28.75
C      11.97      12.29      26.94
C      13.37      12.31      26.99
C      13.33      13.82      28.75
H       7.09      11.42      27.14
H       7.29      15.21      28.20
H       9.58      15.16      28.12
H       9.45      11.31      27.00
H      11.48      14.39      29.38
H      11.52      11.74      26.31
H      13.86      11.76      26.39
H      13.80      14.33      29.40
N       7.00      13.32      27.74
N      14.05      13.06      27.85
