14

O       7.78      11.53      10.06
O       7.75       9.42      10.80
C       5.26       9.76      11.99
C       5.95      10.80      11.40
C       7.26      10.56      10.67
C       4.11      10.10      12.68
C       4.38      12.28      12.11
C       3.25       9.02      13.35
O       2.20       9.40      13.90
O       3.67       7.85      13.27
H       4.07      13.16      12.14
H       5.55       8.88      11.93
N       5.50      12.05      11.42
N       3.66      11.36      12.75
