17

O       8.09       6.97       1.14
O       5.27       9.70       4.24
H       9.44      11.54       4.44
H       7.54      10.85       3.46
H       9.02       7.09       3.31
H      10.88       7.88       4.31
H       6.16       7.11       1.46
H       4.81       8.48       2.89
C       9.33      10.63       4.21
C       8.23      10.23       3.64
C       9.09       8.01       3.55
C      10.16       8.48       4.12
C       8.08       8.89       3.31
C       6.89       8.43       2.78
C       6.99       7.47       1.76
C       5.56       8.88       3.31
N      10.29       9.77       4.46
