36

H      13.85      -3.05      17.30
H      12.28      -4.87      16.11
H      15.50      -5.49      12.82
H      17.07      -3.68      14.02
H      11.19      -6.23      15.30
H       9.67      -8.14      14.20
H      12.84      -8.73      10.86
H      14.36      -6.82      11.96
H       8.58      -9.52      13.41
H       7.12     -11.53      12.39
H      10.33     -12.20       9.11
H      11.78     -10.19      10.12
O       7.31     -12.94       8.87
O       7.31     -14.05      10.80
C       7.75     -13.12      10.05
C      16.46      -2.14      16.39
O      16.90      -2.32      17.57
O      16.90      -1.21      15.64
C      15.59      -3.24      15.75
C      14.20      -3.57      16.35
C      13.30      -4.61      15.66
C      13.78      -5.32      14.38
C      15.15      -4.97      13.77
C      16.06      -3.93      14.46
C      12.89      -6.39      13.72
C      11.54      -6.76      14.36
C      10.67      -7.86      13.72
C      11.15      -8.59      12.45
C      12.49      -8.20      11.81
C      13.36      -7.10      12.44
C      10.30      -9.72      11.85
C       8.95     -10.09      12.49
C       8.11     -11.24      11.91
C       8.62     -12.02      10.68
C       9.96     -11.63      10.02
C      10.79     -10.48      10.60
