18

O      16.50      13.60      15.13
C      18.93       9.55      15.00
C      18.93       8.04      15.07
O      21.36      13.60      15.13
O      15.40      11.70      15.13
C      20.12      11.62      15.00
C      21.43      12.38      15.07
C      17.74      11.62      15.00
C      17.75      10.25      15.01
C      16.43      12.38      15.07
H      16.91       9.77      15.02
C      20.11      10.25      15.01
C      18.93      12.30      15.01
O      17.83       7.48      15.13
H      20.95       9.77      15.02
H      18.93      13.26      15.02
O      20.03       7.48      15.13
O      22.46      11.70      15.13
