19

C      13.96       9.97       8.70
C      14.72       9.24       9.57
C      15.77      11.29      11.11
C      16.73      11.59      10.20
C      16.96      13.66      11.13
C      16.01      13.35      12.07
H      15.36       6.85       7.69
H      14.10       8.08       6.24
H      13.59      10.77       8.99
H      16.98      10.95       9.58
H      17.36      14.50      11.15
H      15.79      13.97      12.72
N      13.75       9.59       7.46
N      15.28       8.07       9.21
N      15.39      12.16      12.05
N      17.33      12.80      10.18
S      14.97       9.72      11.27
C      15.01       7.67       7.97
C      14.26       8.41       7.10
