36

H      17.07      13.99       3.80
H      15.48      13.88       1.64
H      12.26      16.37       3.87
H      13.86      16.49       6.03
H      14.38      13.86       0.06
H      12.86      13.86      -2.15
H       9.61      16.30       0.09
H      11.12      16.30       2.30
H      11.78      13.87      -3.74
H      10.33      13.98      -5.99
H       7.11      16.50      -3.81
H       8.55      16.38      -1.55
O      16.90      16.37       6.77
O      16.90      14.15       6.77
C      16.46      15.26       6.34
C       7.75      15.26      -6.34
O       7.31      14.15      -6.77
O       7.31      16.37      -6.77
C      15.59      15.26       5.07
C      16.05      14.50       3.82
C      15.14      14.43       2.58
C      13.76      15.13       2.59
C      13.29      15.87       3.86
C      14.20      15.94       5.10
C      12.87      15.09       1.34
C      13.36      14.38       0.07
C      12.49      14.38      -1.20
C      11.13      15.09      -1.20
C      10.62      15.78       0.08
C      11.49      15.78       1.35
C      10.28      15.13      -2.48
C      10.78      14.43      -3.75
C       9.96      14.49      -5.05
C       8.62      15.26      -5.07
C       8.10      15.94      -3.79
C       8.93      15.87      -2.49
