36

H       4.83       3.51      13.87
H       3.23       5.32      12.71
H       0.28       5.02      16.28
H       1.89       3.22      17.45
H       2.13       6.68      11.91
H       0.61       8.60      10.80
H      -2.38       8.27      14.34
H      -0.86       6.35      15.44
H      -0.48       9.98      10.01
H      -1.91      11.99       8.97
H      -4.86      11.74      12.54
H      -3.43       9.72      13.58
O       4.80       2.33      17.57
O       4.80       1.21      15.64
C       4.35       2.14      16.39
C      -4.35      13.12      10.05
O      -4.80      12.94       8.87
C       3.48       3.24      15.75
C       3.86       3.84      14.39
O      -4.80      14.05      10.80
C       2.94       4.88      13.72
C       1.64       5.32      14.42
C       1.25       4.70      15.77
C       2.17       3.67      16.44
C       0.75       6.39      13.76
C       1.17       7.02      12.42
C       0.30       8.12      11.79
C      -0.99       8.58      12.49
C      -1.42       7.93      13.82
C      -0.55       6.83      14.46
C      -1.84       9.71      11.88
C      -1.41      10.36      10.55
C      -2.23      11.51       9.95
C      -3.48      12.02      10.68
C      -3.92      11.37      12.01
C      -3.10      10.21      12.60
