36

C      15.59      -0.00      21.37
C      16.18      -0.46      22.71
C      15.33      -0.38      23.99
C      13.89       0.16      23.93
C      13.31       0.65      22.59
C      14.15       0.56      21.31
C      13.03       0.20      25.21
C      13.60      -0.32      26.54
C      12.73      -0.32      27.80
C      11.29       0.20      27.74
C      10.72       0.74      26.42
C      11.59       0.75      25.15
C      10.40       0.16      29.00
C      10.98      -0.38      30.32
H      17.24      -0.87      22.75
H      15.76      -0.74      24.99
H      12.24       1.06      22.55
H      13.72       0.92      20.31
H      14.67      -0.72      26.58
H      13.16      -0.72      28.79
H       9.65       1.14      26.38
H      11.17       1.14      24.17
C       8.94       0.64      28.94
H      12.06      -0.73      30.37
C       8.05       0.56      30.19
H       8.52       1.05      27.96
H      10.52      -0.86      32.56
O       7.31      -1.11      33.21
C       7.75       0.00      32.78
C      10.09      -0.46      31.58
O       7.31       1.11      33.21
H       6.96       0.90      30.14
C       8.62       0.00      31.51
C      16.46      -0.00      20.10
O      16.90       1.11      19.67
O      16.90      -1.11      19.67
