22

C       2.40       4.17      24.84
C       2.65       4.40      22.45
C       3.69       5.98      23.91
C       3.72       2.58      23.58
C       4.80       4.22      25.06
C       4.99       4.40      22.69
H       1.61       3.59      24.73
H       2.31       4.67      25.69
H       2.72       5.04      21.71
H       1.85       3.83      22.30
H       3.61       6.49      24.76
H       3.77       6.64      23.17
H       2.92       2.01      23.45
H       4.52       1.99      23.59
H       5.62       3.67      25.10
H       4.73       4.72      25.91
H       5.80       3.84      22.70
H       5.07       5.04      21.93
N       2.47       5.13      23.72
N       3.62       3.34      24.89
N       3.83       3.56      22.48
N       4.91       5.16      23.96
