16

C       0.00      19.86       5.59
O      -1.11      20.43       5.59
O       1.11      20.43       5.59
C       0.00      13.70       5.59
C       0.00      16.01       6.93
O       1.11      13.13       5.59
O      -1.11      13.13       5.59
C       0.00      17.55       6.93
C       0.00      18.32       5.59
C       0.00      17.55       4.26
C       0.00      16.01       4.26
C       0.00      15.24       5.59
H       0.00      18.12       3.27
H       0.00      15.44       3.27
H       0.00      15.44       7.91
H       0.00      18.12       7.91
