16

C      11.18      11.18      20.83
O      11.18      12.30      18.72
O      11.18      10.07      18.72
C      11.18      11.18      19.29
H      13.22      12.30      21.03
H       9.15      10.07      21.03
H       9.15      10.07      23.71
H      13.22      12.30      23.71
C      12.36      11.82      23.14
C      12.36      11.82      21.60
O      11.18      12.30      26.02
C      10.01      10.55      21.60
C      10.01      10.55      23.14
C      11.18      11.18      23.91
C      11.18      11.18      25.45
O      11.18      10.07      26.02
