18

H       3.67       4.31       8.59
H       4.04       3.67       4.24
H       1.02       3.56       2.94
H       0.65       4.19       7.29
C       2.64       4.12       7.12
C       3.68       3.97       6.19
C       3.36       3.78       4.86
C       5.09       4.04       6.61
C       2.05       3.75       4.41
C       1.01       3.90       5.34
C       1.34       4.09       6.67
C      -0.40       3.83       4.92
O       6.02       4.01       5.75
O       5.36       4.11       7.84
O       2.86       4.30       8.44
O      -1.33       3.86       5.78
O      -0.67       3.76       3.69
O       1.83       3.57       3.09
