28

Br       2.12      12.55      14.52
Br       2.29      10.32      17.80
C      -1.12      14.37      10.67
C      -0.96      13.54      11.94
C       0.30      13.39      12.52
C      -2.09      12.98      12.53
C       0.44      12.71      13.74
C      -1.91      12.28      13.70
C      -0.71      12.07      14.29
H       1.07      13.76      12.09
C      -0.58      11.30      15.51
H      -2.95      13.08      12.13
H      -2.69      11.92      14.12
C      -0.52      10.59      16.45
C      -0.47       9.75      17.57
C       0.69       9.52      18.28
C      -1.65       9.11      18.00
H      -2.46       9.27      17.53
C      -1.67       8.22      19.11
H      -2.47       7.76      19.35
C      -0.49       8.06      19.85
C       0.68       8.68      19.47
H       1.48       8.56      19.97
C      -0.45       7.09      21.02
O      -2.24      14.70      10.29
O      -0.03      14.71      10.11
O      -1.54       6.54      21.33
O       0.66       6.92      21.56
