84

H      -3.26      -0.50      12.41
H       0.23      -0.89      11.77
H      -2.57      -2.80      10.14
H      -2.54      -2.06      11.52
H      -1.86      -0.48       9.31
H      -1.25      -0.42      10.76
H      -5.61      -1.87       9.23
H      -4.35      -2.73       8.84
H       0.07      -3.21       8.24
H      -1.44      -2.79       8.23
H      -6.38       3.31      13.70
H      -5.99       1.68      12.19
H      -2.87       0.65      14.32
H      -3.44       2.29      15.79
H       4.69      -3.07      13.09
H       3.25      -2.60      11.36
H       0.75      -0.99      14.06
H       2.25      -1.53      15.67
H      -1.67      -2.86       3.79
H      -5.15      -2.46       4.42
H      -2.35      -0.55       6.05
H      -2.39      -1.30       4.68
H      -3.06      -2.87       6.88
H      -3.67      -2.94       5.44
H       0.69      -1.48       6.96
H      -0.57      -0.63       7.35
H      -4.99      -0.15       7.95
H      -3.48      -0.57       7.96
H       1.45      -6.67       2.49
H       1.06      -5.04       4.01
H      -2.06      -4.01       1.88
H      -1.49      -5.65       0.40
H      -9.61      -0.28       3.11
H      -8.17      -0.76       4.83
H      -5.68      -2.36       2.14
H      -7.17      -1.83       0.52
C      -2.65      -1.94      10.56
C      -1.52      -1.02      10.04
C      -4.66      -1.83       9.08
C      -0.54      -2.45       8.29
C      -4.57      -0.39      11.00
C      -5.62       2.78      13.82
C      -5.40       1.79      12.90
C      -4.33       0.98      13.03
C      -3.60       1.19      14.14
C      -3.94       2.22      15.01
C       0.77      -2.05      10.30
C       3.88      -2.65      13.28
C       3.02      -2.38      12.23
C       1.81      -1.76      12.51
C       1.54      -1.43      13.83
C       2.45      -1.75      14.79
C      -2.27      -1.42       5.63
C      -3.40      -2.34       6.15
C      -0.27      -1.52       7.12
C      -4.39      -0.90       7.90
C      -0.35      -2.97       5.20
C       0.70      -6.14       2.37
C       0.48      -5.15       3.29
C      -0.60      -4.34       3.16
C      -1.32      -4.55       2.06
C      -0.98      -5.57       1.18
C      -5.69      -1.31       5.89
C      -8.80      -0.70       2.91
C      -7.94      -0.98       3.96
C      -6.73      -1.59       3.68
C      -6.47      -1.93       2.36
C      -7.38      -1.61       1.40
N      -4.00      -1.41      10.31
N      -0.36      -1.78       9.58
N      -3.95      -0.04      12.18
N      -4.88       3.05      14.86
N       0.83      -1.47      11.56
N       3.62      -2.36      14.56
N      -0.93      -1.95       5.88
N      -4.56      -1.58       6.61
N      -0.98      -3.32       4.01
N      -0.05      -6.41       1.34
N      -5.76      -1.89       4.63
N      -8.54      -1.00       1.64
O      -5.57       0.17      10.61
O       1.65      -2.75       9.86
O       0.65      -3.53       5.59
O      -6.58      -0.60       6.34
