14

C      10.75       8.16       2.29
C      11.44       7.12       1.70
C      12.75       7.36       0.97
C       8.75       8.89       3.65
O      13.28       6.39       0.36
O      13.25       8.50       1.10
O       7.70       8.52       4.20
O       9.17      10.07       3.57
H       9.56       4.76       2.44
H      11.05       9.04       2.23
N      10.99       5.86       1.72
N       9.15       6.56       3.05
C       9.87       5.63       2.41
C       9.60       7.82       2.98
