10

H       4.66       1.24       0.92
H       2.46       2.86       0.92
O       6.20       3.16       0.45
O       4.53       4.45       1.03
O       0.92       0.94       0.45
O       2.59      -0.35       1.03
C       5.02       3.31       0.79
C       4.21       2.05       0.87
C       2.10       0.79       0.79
C       2.91       2.04       0.87
