36

H       9.48       1.38      11.37
H      11.05       3.27      10.31
H      11.33       5.37      14.44
H       9.76       3.47      15.51
H      12.24       4.59       9.56
H      13.93       6.39       8.51
H      14.17       8.54      12.62
H      12.48       6.73      13.66
H      15.14       7.68       7.76
H      16.93       9.40       6.74
H      17.26      11.50      10.87
H      15.46       9.79      11.88
O       8.42       0.22      13.82
O       8.42       2.23      14.99
C       8.76       1.46      13.99
C      17.99      11.39       8.26
O      18.33      11.87       7.10
O      18.33      11.87       9.43
C       9.51       2.28      13.52
C       9.87       2.23      12.03
C      10.77       3.32      11.41
C      11.31       4.46      12.30
C      10.93       4.52      13.79
C      10.04       3.43      14.40
C      12.25       5.52      11.69
C      12.65       5.43      10.21
C      13.62       6.46       9.61
C      14.18       7.59      10.49
C      13.76       7.70      11.97
C      12.79       6.66      12.57
C      15.18       8.60       9.90
C      15.59       8.50       8.42
C      16.62       9.48       7.84
C      17.24      10.57       8.73
C      16.81      10.69      10.21
C      15.78       9.71      10.79
