88

H       2.01       6.33       4.04
H       2.01       4.43       2.74
H       2.01      -6.33      -4.04
H       2.01      -4.43      -2.74
H       2.01      -4.04       6.33
H       2.01      -2.74       4.43
H       2.01       4.04      -6.33
H       2.01       2.74      -4.43
H      -2.01      -6.33      -4.04
H      -2.01      -4.43      -2.74
H      -2.01       6.33       4.04
H      -2.01       4.43       2.74
H      -2.01       4.04      -6.33
H      -2.01       2.74      -4.43
H      -2.01      -4.04       6.33
H      -2.01      -2.74       4.43
H       0.00       2.33       4.58
H       0.00      -0.04       5.13
H      -0.00      -2.33      -4.58
H      -0.00       0.04      -5.13
H      -0.00      -4.58       2.33
H      -0.00      -5.13      -0.04
H       0.00       4.58      -2.33
H       0.00       5.13       0.04
C       1.20       5.95       3.77
C       1.20       4.80       3.00
C       1.20      -5.95      -3.77
C       1.20      -4.80      -3.00
C       1.20      -3.77       5.95
C       1.20      -3.00       4.80
C       1.20       3.77      -5.95
C       1.20       3.00      -4.80
C      -1.20      -5.95      -3.77
C      -1.20      -4.80      -3.00
C      -1.20       5.95       3.77
C      -1.20       4.80       3.00
C      -1.20       3.77      -5.95
C      -1.20       3.00      -4.80
C      -1.20      -3.77       5.95
C      -1.20      -3.00       4.80
C       0.00       6.54       4.13
C       0.00       4.21       2.62
C       0.00       2.95       1.81
C       0.00       1.73       2.53
C       0.00       1.63       3.97
C       0.00       0.32       4.27
C       0.00      -0.43       3.05
C      -0.00      -6.54      -4.13
C      -0.00      -4.21      -2.62
C      -0.00      -2.95      -1.81
C      -0.00      -1.73      -2.53
C      -0.00      -1.63      -3.97
C      -0.00      -0.32      -4.27
C      -0.00       0.43      -3.05
C       0.00      -4.13       6.54
C       0.00      -2.62       4.21
C       0.00      -1.81       2.95
C      -0.00      -2.53       1.73
C      -0.00      -3.97       1.63
C      -0.00      -4.27       0.32
C      -0.00      -3.05      -0.43
C      -0.00       4.13      -6.54
C      -0.00       2.62      -4.21
C      -0.00       1.81      -2.95
C       0.00       2.53      -1.73
C       0.00       3.97      -1.63
C       0.00       4.27      -0.32
C       0.00       3.05       0.43
S       0.00       8.11       4.94
S      -0.00      -8.11      -4.94
S       0.00      -4.94       8.11
S      -0.00       4.94      -8.11
N       0.00       0.46       2.00
N      -0.00      -0.46      -2.00
N      -0.00      -2.00       0.46
N       0.00       2.00      -0.46
O       1.20       8.18       5.75
O       1.20      -8.18      -5.75
O       1.20      -5.75       8.18
O       1.20       5.75      -8.18
O      -1.20      -8.18      -5.75
O      -1.20       8.18       5.75
O      -1.20       5.75      -8.18
O      -1.20      -5.75       8.18
O       0.00       9.07       3.89
O      -0.00      -9.07      -3.89
O       0.00      -3.89       9.07
O      -0.00       3.89      -9.07
