16

O       1.94      21.26      27.96
O       1.94      23.48      27.96
H       4.25      20.70      26.35
H       4.25      24.04      29.57
H       6.93      24.04      29.57
H       6.93      20.70      26.35
C       2.51      22.37      27.96
C       4.82      21.41      27.04
C       4.05      22.37      27.96
C       4.82      23.33      28.89
C       7.13      22.37      27.96
C       6.36      21.41      27.04
C       6.36      23.33      28.89
O       9.24      23.48      27.96
C       8.67      22.37      27.96
O       9.24      21.26      27.96
