16

H       4.25      13.48      27.60
H       4.25       8.89      28.32
C       4.82      12.50      27.76
H       6.93      13.48      27.60
C       4.05      11.18      27.96
C       6.36       9.87      28.17
C       7.13      11.18      27.96
C       6.36      12.50      27.76
C       4.82       9.87      28.17
O       1.94      10.07      27.96
O       1.94      12.30      27.96
H       6.93       8.89      28.32
C       2.51      11.18      27.96
O       9.24      12.30      27.96
O       9.24      10.07      27.96
C       8.67      11.18      27.96
