16

C       4.82       0.00      15.44
C       4.05       0.00      16.78
C       4.82       0.00      18.11
C       2.51       0.00      16.78
C       7.13       0.00      16.78
C       6.36       0.00      15.44
O       1.94      -1.11      16.78
O       1.94       1.11      16.78
C       6.36       0.00      18.11
C       8.67       0.00      16.78
H       4.25       0.00      14.46
H       4.25       0.00      19.10
H       6.93       0.00      19.10
H       6.93       0.00      14.46
O       9.24      -1.11      16.78
O       9.24       1.11      16.78
