22

O       4.88       7.75       7.99
O       6.93       6.86       8.17
O       9.57      15.56       7.18
O       7.58      16.38       6.60
H       5.01      10.20       7.57
H       4.79      12.63       7.13
H       5.75      14.70       6.90
H       9.46      13.12       7.31
H       9.66      10.64       7.73
H       8.69       8.59       8.11
C       6.13       7.83       8.01
C       6.75       9.19       7.81
C       5.95      10.30       7.59
C       6.51      11.55       7.40
C       5.74      12.71       7.18
C       6.30      13.93       7.03
C       7.70      14.07       7.08
C       8.52      13.01       7.28
C       7.92      11.69       7.45
C       8.71      10.56       7.70
C       8.14       9.34       7.91
C       8.32      15.45       6.94
