22

O       0.04       6.02      25.56
O      -1.82       7.24      25.42
O      -3.30       4.00      33.86
O      -1.85       2.35      33.69
C      -1.03       6.49      26.02
C      -1.39       6.09      27.44
C      -0.61       5.20      28.13
C      -0.98       4.78      29.41
C      -0.28       3.79      30.14
C      -0.70       3.40      31.38
C      -1.84       3.92      31.95
C      -2.59       4.84      31.30
C      -2.17       5.29      30.00
C      -2.94       6.21      29.26
C      -2.56       6.61      28.01
C      -2.43       3.41      33.31
H       0.19       4.86      27.74
H       0.49       3.39      29.76
H      -0.19       2.75      31.85
H      -3.39       5.18      31.69
H      -3.74       6.55      29.64
H      -3.08       7.24      27.54
