38

H       6.75       0.33       5.17
H       7.95       1.10       3.34
H       5.46      -0.99       0.93
H       4.39      -1.77       2.83
H       9.12      -0.77       2.03
H      10.27       0.35       1.89
H      10.08       1.92      -0.18
H       8.83       1.66      -1.15
H      13.25      -0.33      -5.17
H      12.05      -1.10      -3.34
H      14.54       0.99      -0.93
H      15.61       1.77      -2.83
H      10.87       0.77      -2.03
H       9.73      -0.35      -1.89
H       9.92      -1.92       0.18
H      11.16      -1.66       1.15
C       6.49       0.05       4.30
C       7.20       0.52       3.21
C       6.83       0.15       1.93
C       5.75      -0.71       1.79
C       5.11      -1.16       2.93
C       7.49       0.74       0.72
C       9.67      -0.26       1.38
C       9.49       1.22      -0.57
C      13.50      -0.05      -4.30
C      12.79      -0.52      -3.21
C      13.16      -0.15      -1.93
C      14.25       0.71      -1.79
C      14.88       1.16      -2.93
C      12.51      -0.74      -0.72
C      10.32       0.26      -1.38
C      10.50      -1.22       0.57
N       5.46      -0.79       4.17
N       8.79       0.53       0.52
N      14.54       0.79      -4.17
N      11.20      -0.53      -0.52
O       6.79       1.43      -0.02
O      13.21      -1.43       0.02
