36

C      22.89      12.85       4.79
C      24.04      13.87       4.73
C      25.06      13.81       3.57
C      24.92      12.74       2.47
C      23.78      11.70       2.55
C      22.76      11.76       3.71
C      25.91      12.71       1.30
C      27.02      13.77       1.21
C      27.99      13.77       0.01
C      27.84      12.71      -1.10
C      26.74      11.63      -1.00
C      25.77      11.63       0.20
C      28.78      12.74      -2.32
C      29.88      13.81      -2.41
C      30.80      13.86      -3.64
C      30.61      12.85      -4.79
C      29.52      11.77      -4.69
C      28.61      11.71      -3.45
H      24.14      14.67       5.53
H      25.91      14.57       3.52
H      23.68      10.90       1.75
H      21.91      11.00       3.76
H      27.12      14.55       2.02
H      28.81      14.56      -0.06
H      26.64      10.85      -1.82
H      24.95      10.84       0.27
H      30.01      14.56      -1.57
H      31.61      14.66      -3.71
H      29.39      11.01      -5.53
H      27.80      10.91      -3.37
O      30.76      13.43      -6.72
O      32.66      12.75      -5.56
C      31.37      12.85      -5.73
C      22.13      12.85       5.73
O      20.84      12.75       5.56
O      22.74      13.42       6.73
