36

C      17.24      16.59      11.27
C      15.74      16.26      11.41
C      14.79      17.27      12.08
C      15.34      18.60      12.62
C      16.84      18.92      12.50
C      17.79      17.92      11.82
C      14.38      19.63      13.26
C      12.88      19.32      13.34
C      11.91      20.35      13.94
C      12.45      21.70      14.45
C      13.96      22.00      14.39
C      14.93      20.96      13.79
C      11.48      22.75      15.01
C       9.97      22.44      15.08
H      15.33      15.27      11.01
H      13.68      17.03      12.18
H      17.25      19.91      12.91
H      18.90      18.15      11.72
C      12.01      24.12      15.49
C       8.99      23.51      15.60
H      14.36      22.99      14.78
H      16.04      21.19      13.74
H       9.58      21.43      14.73
C      11.02      25.19      16.01
H       7.87      23.28      15.65
H      13.12      24.34      15.45
C       8.76      25.70      16.52
O       8.42      26.18      17.69
O       8.42      26.18      15.36
H      11.41      26.20      16.35
O      18.33      14.53      10.96
C      17.99      15.77      10.80
O      18.33      16.54       9.80
C       9.51      24.88      16.05
H      12.48      18.32      12.95
H      10.79      20.13      13.99
