36

H       5.28      -0.01      22.85
H       3.75       0.13      25.05
H      -0.06       0.21      22.41
H       1.46       0.06      20.20
H       2.66       0.15      26.64
H       1.14       0.15      28.85
H      -2.68       0.29      26.22
H      -1.16       0.30      24.01
H       0.05       0.14      30.43
H      -1.45       0.00      32.65
H      -5.29       0.04      30.03
H      -3.78       0.20      27.82
O      -4.80       1.11      33.20
O      -4.80      -1.11      33.20
C      -4.35      -0.00      32.77
O       4.80      -1.11      19.66
C       4.35      -0.00      20.09
O       4.80       1.11      19.66
C       3.48      -0.00      21.36
C       4.14       0.03      22.75
C       3.27       0.12      24.02
C       1.73       0.17      23.89
C       1.07       0.16      22.50
C       1.95       0.07      21.24
C       0.86       0.21      25.16
C       1.52       0.18      26.55
C       0.65       0.18      27.82
C      -0.88       0.21      27.70
C      -1.55       0.26      26.31
C      -0.67       0.26      25.04
C      -1.75       0.17      28.96
C      -1.08       0.12      30.35
C      -1.95       0.04      31.62
C      -3.48      -0.00      31.51
C      -4.15       0.06      30.12
C      -3.29       0.15      28.85
