16

O       9.07       1.11      12.06
O       9.07      -1.11      12.06
C       8.63       0.00      12.49
C       7.52       0.26      16.41
C       6.01       0.00      16.30
C       5.37      -0.26      14.93
C       6.24      -0.26      13.66
C       7.75       0.00      13.76
C       8.40       0.26      15.14
O       4.69      -1.11      18.00
O       4.69       1.11      18.00
H       8.00       0.45      17.43
H       4.25      -0.45      14.85
H       5.76      -0.45      12.64
H       9.52       0.45      15.22
C       5.14       0.00      17.57
