28

Br       9.90      19.71      14.48
Br       9.85      21.71      17.89
C      12.60      25.01      20.99
H      14.93      18.95      12.17
H      10.92      18.42      12.07
H      14.72      20.28      14.04
C      13.07      17.76      10.68
H      10.62      23.53      19.97
C      14.07      19.12      12.53
C      11.70      18.78      12.48
C      11.60      19.52      13.67
C      13.94      19.88      13.66
C      12.95      18.59      11.92
C      12.74      20.09      14.24
C      12.60      20.93      15.45
C      12.55      21.63      16.37
C      12.57      22.48      17.54
C      11.43      22.63      18.36
C      11.42      23.43      19.45
C      13.75      23.17      17.87
C      12.64      24.13      19.82
C      13.76      23.96      19.02
O      12.01      17.46      10.09
O      14.22      17.44      10.31
O      11.52      25.21      21.59
O      13.70      25.57      21.32
H      14.52      23.10      17.32
H      14.56      24.40      19.26
