36

C       9.32       4.70      13.63
C      10.24       5.55      14.52
C      10.34       5.26      16.03
C       9.53       4.10      16.65
C      11.09       6.68      13.90
C      11.01       6.94      12.38
C      11.88       8.04      11.75
C      12.83       8.87      12.63
C      12.89       8.63      14.15
C      12.01       7.53      14.78
C      13.73       9.94      11.99
C      13.66      10.19      10.47
C      14.59      11.23       9.82
C      15.59      12.02      10.68
C      15.64      11.79      12.20
C      14.71      10.75      12.86
H       7.82       2.91      13.59
H       9.24       4.92      12.52
H      11.02       5.90      16.69
H       9.61       3.88      17.76
H      10.32       6.31      11.73
H      11.84       8.22      10.62
H      13.58       9.25      14.80
H      12.06       7.34      15.91
H      12.93       9.59       9.83
H      14.54      11.41       8.69
H      16.37      12.38      12.84
H      14.75      10.58      13.98
O      16.90      12.94       8.87
O      16.90      14.05      10.80
C      16.46      13.12      10.05
C       7.75       2.14      16.39
O       7.31       2.32      17.56
O       7.31       1.21      15.64
C       8.62       3.24      15.75
C       8.50       3.55      14.25
