14

O       4.94       7.91       4.19
N       2.99      10.50       2.72
H       1.66      11.87       2.36
H       2.95       8.84       5.47
C       1.89      11.21       2.98
C       1.49      10.18       4.96
C       2.66       9.43       4.81
C       3.37       9.60       3.66
C       4.55       8.71       3.31
N       1.10      11.06       4.04
O      -0.47      10.65       6.19
O       0.94       9.10       6.95
O       5.00       8.82       2.14
C       0.58       9.95       6.14
