28

H       8.88       1.92       7.67
H       8.25       4.08       8.19
H      12.01       4.80       9.51
H      12.92       2.73      11.21
H      16.53       1.37       9.90
H      15.68       1.26       7.73
C       9.52       2.50       8.07
C       9.14       3.79       8.37
C      10.06       4.65       8.95
C      11.36       4.21       9.15
C      11.71       2.89       8.83
C      13.03       2.38       9.17
C      13.49       2.44      10.51
C      14.80       2.07      10.77
C      15.63       1.63       9.72
C      15.13       1.57       8.44
S       9.64       6.30       9.44
S      15.47       2.22      12.41
N      10.75       2.06       8.31
N      13.85       1.96       8.19
O      11.07       0.81       8.10
O      13.41       1.90       6.94
O      16.28       3.44      12.36
O      16.28       1.02      12.58
O      14.34       2.30      13.29
O       9.82       7.14       8.29
O       8.26       6.23       9.90
O      10.53       6.62      10.53
