22

O       5.92      14.05      19.33
O       5.96      12.06      20.34
O      -3.09      10.87      19.58
O      -3.13      13.01      20.13
C       5.37      13.02      19.77
C       3.88      12.99      19.65
C       3.19      11.83      19.80
C       1.71      11.83      19.71
C       1.03      10.69      19.90
C      -0.34      10.73      19.88
C      -1.05      11.98      19.70
C      -0.36      13.10      19.53
C       1.14      13.09      19.50
C       1.84      14.27      19.34
C       3.18      14.23      19.38
C      -2.52      11.97      19.80
H       3.65      11.02      19.96
H       1.49       9.87      20.05
H      -0.84       9.92      19.97
H      -0.83      13.92      19.42
H       1.38      15.09      19.21
H       3.68      15.03      19.22
