36

C      10.76      11.30      12.11
C      10.27       9.84      12.09
C       8.95       9.47      11.40
C       8.13      10.56      10.69
C      11.12       8.74      12.76
C      12.46       9.11      13.43
C      13.33       8.01      14.06
C      12.86       6.55      14.03
C      11.51       6.18      13.39
C      10.64       7.28      12.76
C      13.76       5.45      14.63
C      15.10       5.82      15.28
C      16.02       4.72      15.84
C      15.59       3.24      15.75
C      14.23       2.87      15.12
C      13.31       3.97      14.56
H      10.29      13.47      11.41
H      11.73      11.57      12.63
H       8.59       8.39      11.40
H       7.15      10.29      10.16
H      12.81      10.20      13.44
H      14.33       8.28      14.55
H      11.16       5.10      13.38
H       9.64       7.01      12.27
H      15.42       6.91      15.33
H      17.01       4.99      16.32
H      13.91       1.78      15.07
H      12.31       3.70      14.09
O       7.31      14.05      10.80
O       7.31      12.94       8.87
C       7.75      13.12      10.05
C      16.46       2.14      16.39
O      16.90       1.21      15.64
O      16.90       2.32      17.57
C       8.62      12.02      10.68
C       9.93      12.39      11.40
