36

C       9.14       9.44      11.11
C      10.46       9.82      11.81
C      10.87      11.30      11.92
C       9.95      12.40      11.36
C      11.35       8.72      12.41
C      10.91       7.25      12.33
C      11.78       6.15      12.96
C      13.09       6.52      13.68
C      13.54       7.99      13.74
C      12.67       9.09      13.11
C      13.94       5.43      14.35
C      13.49       3.96      14.28
C      14.31       2.86      14.98
C      15.59       3.24      15.75
C      16.05       4.71      15.81
C      15.23       5.80      15.11
H       7.24      10.26      10.04
H       8.84       8.35      11.02
H      11.85      11.58      12.43
H      10.25      13.50      11.46
H       9.94       6.97      11.80
H      11.45       5.06      12.91
H      14.52       8.27      14.27
H      13.00      10.18      13.16
H      12.54       3.68      13.71
H      13.98       1.78      14.92
H      17.00       4.99      16.38
H      15.57       6.89      15.15
O       7.31      14.05      10.80
O       7.31      12.94       8.87
C       7.75      13.12      10.05
C      16.46       2.14      16.39
O      16.90       1.21      15.64
O      16.90       2.32      17.57
C       8.62      12.02      10.68
C       8.22      10.54      10.55
