16

H      21.68      13.40      34.89
C      22.37      11.18      35.09
C      22.77       9.91      34.32
C      21.97      12.46      34.32
H      21.68      13.40      32.21
C      21.97      12.46      32.78
C      22.37      11.18      32.01
H      23.06       8.97      34.89
C      22.77       9.91      32.78
O      23.48      11.18      37.21
H      23.06       8.97      32.21
O      22.37      10.07      29.90
O      21.26      11.18      37.21
O      22.37      12.30      29.90
C      22.37      11.18      36.63
C      22.37      11.18      30.47
