16

C       0.12       9.86      21.60
C       0.00      11.18      20.83
C       0.00      11.18      19.29
C      -0.12      12.51      23.14
C       0.00      11.18      23.91
C       0.12       9.86      23.14
C      -0.12      12.51      21.60
O       0.00      10.07      18.72
O       0.00      10.07      26.02
O       0.00      12.30      18.72
O       0.00      12.30      26.02
C       0.00      11.18      25.45
H       0.21       8.87      21.03
H      -0.21      13.50      21.03
H      -0.21      13.50      23.71
H       0.21       8.87      23.71
