16

C      22.36      12.52      43.97
C      22.37      11.18      43.20
C      22.38       9.85      43.97
C      22.38       9.85      45.51
C      22.37      11.18      46.28
C      22.36      12.52      45.51
O      23.48      11.18      41.09
C      22.37      11.18      47.82
O      23.48      11.18      48.39
H      22.35      13.51      43.40
H      22.39       8.86      43.40
H      22.39       8.86      46.08
H      22.35      13.51      46.08
O      21.26      11.18      41.09
O      21.26      11.18      48.39
C      22.37      11.18      41.66
