36

C      20.72       3.24      15.75
C      21.71       4.04      16.62
C      22.64       5.09      15.97
C      22.58       5.32      14.45
C      21.62       4.50      13.58
C      20.68       3.46      14.23
C      23.48       6.39      13.81
C      24.42       7.24      14.69
C      25.29       8.33      14.06
C      25.22       8.59      12.54
C      24.31       7.73      11.65
C      23.44       6.63      12.29
C      26.07       9.71      11.91
C      26.99      10.57      12.80
C      27.80      11.72      12.19
C      27.69      12.02      10.68
C      26.78      11.16       9.79
C      25.97      10.00      10.40
H      21.74       3.87      17.75
H      23.36       5.69      16.61
H      21.59       4.66      12.45
H      19.96       2.86      13.59
H      24.46       7.05      15.81
H      25.98       8.97      14.71
H      24.27       7.91      10.53
H      22.75       5.99      11.63
H      27.06      10.35      13.92
H      28.48      12.35      12.85
H      26.70      11.38       8.67
H      25.30       9.36       9.74
O      29.00      14.05      10.80
O      29.00      12.94       8.87
C      28.56      13.12      10.05
O      19.41       1.21      15.64
C      19.85       2.14      16.39
O      19.41       2.32      17.57
