18

O      13.33       4.88       7.78
O      14.43       4.25       5.99
O      13.33       8.97       2.01
C      12.19       8.42       5.95
C      11.26       9.39       6.64
O      14.43       7.06       2.01
C      13.77       6.58       4.66
O      10.89       9.10       7.78
C      13.39       7.73       4.01
C      13.77       7.95       2.55
C      12.59       7.27       6.59
C      13.39       6.35       5.95
C      13.77       5.06       6.64
C      12.59       8.63       4.66
H      12.31       7.11       7.49
H      12.31       9.43       4.20
H      14.32       5.94       4.20
O      10.89      10.37       5.99
