36

H       5.23      20.02      10.95
H       3.67      21.98      11.92
H      -0.05      19.24      11.50
H       1.50      17.28      10.54
H       2.58      23.36      12.70
H       1.06      25.28      13.81
H      -2.69      22.58      13.34
H      -1.17      20.66      12.23
H      -0.03      26.65      14.60
H      -1.51      28.51      15.83
H      -5.24      25.79      15.47
H      -3.77      23.93      14.22
O       4.80      17.59       8.87
O       4.80      16.47      10.80
C       4.35      17.40      10.05
O      -4.80      28.20      17.57
C      -4.35      28.38      16.39
O      -4.80      29.31      15.64
C       3.48      18.50      10.68
C       4.10      19.86      11.07
C       3.21      20.98      11.63
C       1.70      20.75      11.80
C       1.07      19.41      11.39
C       1.97      18.28      10.84
C       0.82      21.87      12.39
C       1.46      23.19      12.84
C       0.59      24.29      13.47
C      -0.92      24.06      13.66
C      -1.57      22.74      13.20
C      -0.69      21.64      12.56
C      -1.78      25.15      14.34
C      -1.14      26.47      14.79
C      -1.99      27.54      15.50
C      -3.48      27.28      15.75
C      -4.13      25.97      15.28
C      -3.29      24.90      14.57
