20

N      12.05      18.90      27.83
N      19.12      18.86      27.92
H      18.82      17.07      27.15
H      16.58      17.01      27.23
H      12.25      17.68      29.37
H      12.32      20.23      26.34
C      18.41      19.55      28.71
C      17.04      19.63      28.79
C      16.34      18.87      27.94
C      14.83      18.85      27.97
C      14.15      19.65      26.95
C      14.15      18.14      28.80
C      12.74      18.19      28.73
C      12.78      19.67      26.96
H      14.59      17.59      29.44
H      14.64      20.14      26.31
H      18.89      20.09      29.33
H      16.62      20.19      29.43
C      18.37      17.83      27.49
C      17.04      17.79      27.51
