36

C      20.72      12.02      10.68
C      22.12      11.72      10.11
C      23.02      10.68      10.80
C      22.53       9.94      12.06
C      21.14      10.26      12.64
C      20.23      11.30      11.95
C      23.41       8.87      12.72
C      24.79       8.53      12.11
C      25.66       7.43      12.74
C      25.16       6.67      13.99
C      23.79       7.03      14.61
C      22.92       8.13      13.98
C      26.01       5.54      14.59
C      27.37       5.20      13.97
C      28.21       4.05      14.55
C      27.69       3.24      15.75
C      26.33       3.60      16.39
C      25.49       4.75      15.81
H      22.49      12.26       9.18
H      24.06      10.45      10.38
H      20.78       9.72      13.58
H      19.20      11.53      12.38
H      25.15       9.08      11.18
H      26.67       7.17      12.29
H      23.43       6.47      15.54
H      21.91       8.39      14.43
H      27.76       5.79      13.08
H      29.22       3.79      14.09
H      25.95       3.01      17.28
H      24.49       5.02      16.28
O      19.41      12.94       8.87
O      19.41      14.05      10.80
C      19.85      13.12      10.05
O      29.00       2.32      17.56
C      28.56       2.14      16.39
O      29.00       1.21      15.64
