36

C       3.48      -3.24      15.75
C       1.97      -3.30      16.05
C       1.09      -4.35      15.35
C       1.72      -5.34      14.35
C       3.22      -5.26      14.03
C       4.11      -4.22      14.74
C       0.84      -6.41      13.68
C      -0.66      -6.51      14.03
C      -1.53      -7.60      13.40
C      -0.90      -8.61      12.41
C       0.59      -8.50      12.05
C       1.46      -7.40      12.68
C      -1.77      -9.73      11.81
C      -3.26      -9.83      12.18
C      -4.12     -10.97      11.61
C      -3.48     -12.02      10.68
C      -1.99     -11.92      10.30
C      -1.14     -10.77      10.86
H       1.51      -2.57      16.79
H      -0.03      -4.40      15.58
H       3.68      -5.99      13.28
H       5.22      -4.17      14.51
H      -1.12      -5.76      14.77
H      -2.64      -7.68      13.66
H       1.05      -9.24      11.31
H       2.57      -7.33      12.41
H      -3.72      -9.06      12.88
H      -5.22     -11.05      11.89
H      -1.53     -12.69       9.60
H      -0.03     -10.69      10.58
O      -4.80     -14.05      10.79
O      -4.80     -12.94       8.87
C      -4.35     -13.12      10.05
O       4.80      -1.21      15.64
C       4.35      -2.14      16.39
O       4.80      -2.33      17.56
