16

C       0.00       0.00       8.10
O       0.00      -1.11      14.84
O       1.11       0.00       7.53
C       0.00       0.00      14.26
O      -1.11      -0.00       7.53
C      -0.84      -1.03      10.41
C       0.00       0.00       9.64
C       0.84       1.03      10.41
C       0.84       1.03      11.95
C       0.00       0.00      12.72
C      -0.84      -1.03      11.95
O       0.00       1.11      14.84
H      -1.47      -1.80       9.84
H       1.47       1.80       9.84
H       1.47       1.80      12.52
H      -1.47      -1.80      12.52
