18

N      13.61       7.49       5.53
C      12.39       7.14       4.87
C      12.40       6.70       3.55
C      14.10       6.67       6.41
C      15.39       7.18       7.09
C       9.96       7.14       4.87
C       9.95       6.70       3.55
C       8.25       6.67       6.41
C       6.97       7.18       7.09
N       8.74       7.49       5.53
O      13.67       5.52       6.75
O      15.91       6.41       7.94
O      15.83       8.31       6.76
O       8.69       5.52       6.75
O       6.44       6.41       7.94
O       6.52       8.31       6.76
C      11.18       7.33       5.54
C      11.18       6.49       2.90
