18

C       3.73       1.97      10.58
C       3.73       2.81      13.21
C       2.51       2.16      11.24
C       2.50       2.60      12.56
C       0.80       2.63       9.70
C      -0.49       2.13       9.02
O       1.24       3.78       9.36
O      -1.01       2.89       8.18
O      -0.93       1.00       9.35
N       6.16       1.81      10.58
N       1.29       1.81      10.58
C       4.94       2.16      11.24
C       4.95       2.60      12.56
C       6.65       2.63       9.70
C       7.94       2.13       9.02
O       6.22       3.78       9.36
O       8.46       2.89       8.18
O       8.38       1.00       9.35
