18

C       6.65      -0.42      13.54
C       7.94       0.42      13.44
O       8.46       0.77      14.53
O       8.38       0.70      12.30
O       6.22      -0.69      14.71
C       3.73      -0.84      12.53
C       3.73      -3.55      11.94
C       2.51      -1.51      12.37
N       6.16      -0.77      12.39
C       2.50      -2.88      12.09
C       0.80      -0.42      13.54
N       1.29      -0.77      12.39
C      -0.49       0.42      13.44
O       1.24      -0.69      14.71
O      -1.01       0.77      14.53
O      -0.93       0.70      12.30
C       4.94      -1.51      12.37
C       4.95      -2.88      12.09
