32

O       0.95      31.46      16.16
O       1.75      31.54      18.25
C       1.37      24.32      17.36
C       3.64      23.42      16.04
C       3.43      24.78      16.19
C       1.74      27.42      15.86
C       1.51      28.79      15.92
C       1.61      29.45      17.14
C       2.15      27.38      18.23
C       1.93      28.75      18.29
C      -0.01      24.66      18.00
C       1.59      22.96      17.21
C       2.29      25.23      16.85
C       3.05      21.05      16.54
H       4.05      25.40      15.83
C       2.06      26.71      17.01
C       2.51      26.63      19.57
C       1.37      30.91      17.21
H       1.29      29.27      15.13
H       1.67      26.97      15.02
H       1.99      29.20      19.12
H       4.42      23.11      15.59
H       0.13      25.16      18.83
H       2.62      27.28      20.29
H       1.79      26.01      19.80
H       3.34      26.12      19.44
H      -0.53      25.21      17.37
H      -0.49      23.83      18.18
H       0.96      22.34      17.56
O       3.97      20.75      15.73
C       2.73      22.50      16.55
O       2.59      20.28      17.43
