32

C       7.81      10.35      18.94
C       9.87      10.80      17.77
C       7.60      11.71      19.09
C       8.51      12.62      18.58
C       9.50       7.70      19.27
C       9.73       6.33      19.21
C       9.63       5.67      17.99
C       9.09       7.75      16.90
C       9.31       6.38      16.83
C      11.25      10.46      17.13
C       9.65      12.17      17.92
C       8.95       9.89      18.28
C       8.19      14.07      18.59
C       9.18       8.41      18.12
C       9.87       4.22      17.92
C       8.73       8.50      15.56
H       7.19       9.72      19.29
H       6.82      12.02      19.54
H       9.57       8.16      20.10
H       9.95       5.85      19.99
H       9.25       5.93      16.00
H      11.11       9.97      16.30
H      11.77       9.92      17.76
H      11.73      11.30      16.94
H      10.27      12.79      17.57
H       8.61       7.85      14.84
H       9.45       9.12      15.33
H       7.90       9.00      15.68
O      10.29       3.66      18.97
O       9.49       3.59      16.87
O       7.27      14.38      19.40
O       8.65      14.85      17.70
