32

O       6.57       1.41      31.46
O       7.36      -0.69      31.54
O       9.59       1.83      20.75
O       8.21       0.13      20.28
C       9.05       1.38      24.78
C       6.99       0.20      24.32
C       9.26       1.53      23.42
C       8.34       1.01      22.50
C       7.36       1.71      27.42
C       7.13       1.64      28.79
C       7.23       0.42      29.45
C       7.77      -0.66      27.38
C       7.55      -0.73      28.75
H       9.67       1.73      25.40
H       7.29       2.54      26.97
H       6.91       2.43      29.27
H       7.61      -1.56      29.20
C       7.68       0.56      26.71
C       6.99       0.35      30.91
C       8.13      -2.00      26.63
C       7.91       0.71      25.23
C       5.61      -0.43      24.66
C       7.21       0.35      22.96
H       5.75      -1.26      25.16
H       5.09       0.19      25.21
H       5.13      -0.62      23.83
H       6.58       0.00      22.34
H       8.24      -2.72      27.28
H       7.41      -2.23      26.01
H       8.96      -1.88      26.12
H      10.04       1.98      23.11
C       8.67       1.02      21.05
