32

O       4.67      18.97      13.90
O       3.87      16.87      13.97
O       1.65      19.40       3.19
O       3.03      17.70       2.71
C       2.19      18.94       7.22
C       4.25      17.77       6.76
C       1.98      19.09       5.85
C       2.89      18.58       4.94
C       3.88      19.27       9.86
C       4.11      19.21      11.23
C       4.01      17.99      11.89
C       3.47      16.90       9.81
C       3.69      16.83      11.18
C       5.63      17.13       7.10
C       4.03      17.92       5.40
C       3.33      18.28       7.67
C       2.57      18.59       3.49
C       3.56      18.12       9.15
C       4.25      17.92      13.34
C       3.11      15.56       9.06
H       1.57      19.29       7.84
H       1.20      19.54       5.54
H       3.95      20.10       9.41
H       4.33      19.99      11.71
H       3.63      16.00      11.63
H       5.49      16.30       7.59
H       6.15      17.76       7.64
H       6.11      16.94       6.27
H       4.66      17.57       4.77
H       3.00      14.84       9.72
H       3.83      15.33       8.44
H       2.28      15.68       8.56
