32

C       7.13      15.92      23.90
C       7.21      17.21      29.73
H       8.24      20.29      25.41
O       6.57      16.16      21.23
O       7.36      18.25      21.15
O       9.59      15.73      31.94
O       8.21      17.43      32.41
C       9.05      16.19      27.91
C       6.99      17.36      28.36
C       9.26      16.04      29.27
C       8.34      16.55      30.18
C       7.36      15.86      25.27
H       9.67      15.83      27.29
H      10.04      15.59      29.58
C       7.23      17.14      23.24
H       7.29      15.02      25.72
C       7.55      18.29      23.94
C       7.77      18.23      25.31
H       7.61      19.12      23.49
H       6.58      17.56      30.35
H       5.13      18.18      28.86
C       5.61      18.00      28.03
C       8.13      19.57      26.06
H       6.91      15.13      23.42
H       5.75      18.83      27.53
H       5.09      17.37      27.48
C       7.91      16.85      27.46
C       7.68      17.01      25.98
C       8.67      16.54      31.63
H       7.41      19.80      26.68
C       6.99      17.21      21.78
H       8.96      19.44      26.57
