13

H       9.71       7.90       1.65
H      10.14       6.58      -0.22
C       9.25       6.79       0.02
C       8.18       6.33      -0.75
C       8.98       7.57       1.14
C       6.72       7.42       0.79
H       5.84       7.64       1.06
C       6.89       6.64      -0.35
H       6.14       6.33      -0.84
C       8.44       5.49      -1.99
N       7.75       7.87       1.53
O       9.63       5.18      -2.20
O       7.44       5.24      -2.71
