54

La       7.35       4.04       3.66
La      -2.65       3.83       7.87
H      -3.65       7.47       8.15
H       3.67       4.31       8.59
H       8.19       0.78       0.66
H       7.49       8.45       3.88
H       4.04       3.67       4.24
H       8.35       0.40       3.38
H       1.02       3.56       2.94
H      -3.50       7.09      10.87
H      -2.80      -0.58       7.65
H       0.65       4.19       7.29
C      -3.85       8.83       6.99
C      -3.38       8.19       5.83
C       7.18       8.88       4.64
C      -2.96       6.74       5.85
C       2.64       4.12       7.12
C       3.68       3.97       6.19
C       3.36       3.78       4.86
C       5.09       4.04       6.61
C       6.63       0.16       0.14
C       5.75       0.99       0.84
C       4.38       0.83       0.68
C       6.31       2.06       1.73
C       8.54      -0.96       4.54
C       8.08      -0.32       5.70
C      -2.49      -1.01       6.89
C       7.66       1.13       5.68
C       2.05       3.75       4.41
C       1.01       3.90       5.34
C       1.34       4.09       6.67
C      -0.40       3.83       4.92
C      -1.94       7.71      11.39
C      -1.06       6.88      10.69
C       0.31       7.03      10.85
C      -1.62       5.81       9.80
O      -2.71       6.20       4.76
O      -2.90       6.17       6.98
O      -3.92       8.24       8.20
O       6.02       4.01       5.75
O       5.36       4.11       7.84
O       2.86       4.30       8.44
O       7.53       2.32       1.72
O       5.49       2.71       2.46
O       7.93       0.17       0.18
O       7.40       1.67       6.77
O       7.59       1.70       4.55
O       8.61      -0.37       3.33
O      -1.33       3.86       5.78
O      -0.67       3.76       3.69
O       1.83       3.57       3.09
O      -2.83       5.55       9.81
O      -0.80       5.16       9.07
O      -3.24       7.70      11.35
