174

Cd       0.00       8.43       0.00
Cd       0.00       0.00       0.00
H      -3.26      -0.50      12.41
H       0.23      -0.89      11.77
H      -2.57      14.05      10.14
H      -2.54      -2.06      11.52
H      -1.86      -0.48       9.31
H      -1.25      -0.42      10.76
H       4.23      -1.87       9.23
H       5.49      14.13       8.84
H       0.07      13.64       8.24
H      -1.44      14.06       8.23
H       3.47       3.31      13.70
H       3.86       1.68      12.19
H      -2.87       0.65      14.32
H      -3.44       2.29      15.79
H       4.69      13.78      13.09
H       3.25      14.25      11.36
H       0.75      -0.99      14.06
H       2.25      -1.53      15.67
H       1.67       5.57       3.79
H       5.15       5.96       4.42
H       2.35       7.87       6.05
H       2.39       7.13       4.68
H       3.06       5.55       6.88
H       3.67       5.49       5.44
H      -0.69       6.94       6.96
H       0.57       7.79       7.35
H       4.99       8.28       7.95
H       3.48       7.86       7.96
H       8.39       1.76       2.49
H      -1.06       3.39       4.01
H       2.06       4.42       1.88
H       1.49       2.78       0.40
H      -0.24       8.14       3.11
H       8.17       7.67       4.83
H       5.68       6.06       2.14
H       7.17       6.60       0.52
H       8.18      13.99       3.79
H       4.69      14.39       4.42
H       7.49      -0.55       6.05
H       7.46      15.55       4.68
H       6.78      13.98       6.88
H       6.17      13.91       5.44
H       0.69      15.37       6.96
H      -0.57      -0.63       7.35
H       4.86      -0.15       7.95
H       6.37      -0.57       7.96
H       1.45      10.18       2.49
H       1.06      11.81       4.01
H       7.79      12.84       1.88
H       8.36      11.20       0.40
H       0.24      -0.28       3.11
H       1.67      -0.76       4.83
H       4.17      14.49       2.14
H       2.67      15.02       0.52
H       3.26       7.93      12.41
H      -0.23       7.53      11.77
H       2.57       5.62      10.14
H       2.54       6.37      11.52
H       1.86       7.94       9.31
H       1.25       8.01      10.76
H       5.61       6.55       9.23
H       4.35       5.70       8.84
H      -0.07       5.21       8.24
H       1.44       5.64       8.23
H      -3.47      11.74      13.70
H       5.99      10.11      12.19
H       2.87       9.08      14.32
H       3.44      10.72      15.79
H       5.16       5.35      13.09
H      -3.25       5.82      11.36
H      -0.75       7.43      14.06
H      -2.25       6.90      15.67
C      -2.65      -1.94      10.56
C      -1.52      -1.02      10.04
C       5.19      -1.83       9.08
C      -0.54      14.40       8.29
C       5.27      -0.39      11.00
C       4.23       2.78      13.82
C       4.44       1.79      12.90
C       5.52       0.98      13.03
C      -3.60       1.19      14.14
C      -3.94       2.22      15.01
C       0.77      -2.05      10.30
C       3.88      -2.65      13.28
C       3.02      -2.38      12.23
C       1.81      -1.76      12.51
C       1.54      -1.43      13.83
C       2.45      -1.75      14.79
C       2.27       7.00       5.63
C       3.40       6.09       6.15
C       0.27       6.90       7.12
C       4.39       7.52       7.90
C       0.35       5.46       5.20
C      -0.70       2.29       2.37
C      -0.48       3.27       3.29
C       0.60       4.08       3.16
C       1.32       3.88       2.06
C       0.98       2.85       1.18
C       5.69       7.11       5.89
C       8.80       7.72       2.91
C       7.94       7.45       3.96
C       6.73       6.83       3.68
C       6.47       6.50       2.36
C       7.38       6.82       1.40
C       7.57      15.43       5.63
C       6.45      14.51       6.15
C      -0.27      15.33       7.12
C       5.46      -0.90       7.90
C      -0.35      13.88       5.20
C       0.70      10.71       2.37
C       0.48      11.70       3.29
C      -0.60      12.51       3.16
C       8.52      12.30       2.06
C       8.87      11.28       1.18
C       4.15      15.54       5.89
C       1.04      16.15       2.91
C       1.91      15.87       3.96
C       3.12      15.26       3.68
C       3.38      14.92       2.36
C       2.47      15.24       1.40
C       2.65       6.49      10.56
C       1.52       7.40      10.04
C       4.66       6.59       9.08
C       0.54       5.97       8.29
C       4.57       8.04      11.00
C       5.62      11.21      13.82
C       5.40      10.22      12.90
C       4.33       9.41      13.03
C       3.60       9.62      14.14
C       3.94      10.64      15.01
C      -0.77       6.38      10.30
C      -3.88       5.77      13.28
C      -3.02       6.05      12.23
C      -1.81       6.66      12.51
C      -1.54       7.00      13.83
C      -2.45       6.68      14.79
I       2.55       7.60       1.52
I      -2.37      -2.53      14.68
I       2.37       5.89      14.68
I       7.30      16.03       1.52
N       5.85      -1.41      10.31
N      -0.36      -1.78       9.58
N       5.90      -0.04      12.18
N       4.97       3.05      14.86
N       0.83      -1.47      11.56
N       3.62      -2.36      14.56
N       0.93       6.48       5.88
N       4.56       6.85       6.61
N       0.98       5.11       4.01
N       0.05       2.02       1.34
N       5.76       6.54       4.63
N       8.54       7.43       1.64
N      -0.93      14.90       5.88
N       5.28      15.28       6.61
N      -0.98      13.53       4.01
N      -0.05      10.44       1.34
N       4.09      14.96       4.63
N       1.30      15.85       1.64
N       4.00       7.02      10.31
N       0.36       6.64       9.58
N       3.95       8.39      12.18
N       4.88      11.48      14.86
N      -0.83       6.96      11.56
N      -3.62       6.07      14.56
O       4.27       0.17      10.61
O       1.65      14.10       9.86
O      -0.65       4.89       5.59
O       6.58       7.82       6.34
O       0.65      13.32       5.59
O       3.27      -0.60       6.34
O       5.57       8.60      10.61
O      -1.65       5.67       9.86
