178

Tb       2.46       7.69       7.69
Tb       7.38       7.69       7.69
H       2.01       6.33       4.04
H       2.01       4.43       2.74
H       2.01       9.05      11.35
H       2.01      10.96      12.65
H       2.01      11.35       6.33
H       2.01      12.65       4.43
H       2.01       4.04       9.05
H       2.01       2.74      10.96
H       2.91       9.05       4.04
H       2.91      10.96       2.74
H       2.91       6.33      11.35
H       2.91       4.43      12.65
H       2.91       4.04       6.33
H       2.91       2.74       4.43
H       2.91      11.35       9.05
H       2.91      12.65      10.96
H       7.83       9.05      11.35
H       7.83      10.96      12.65
H       7.83       6.33       4.04
H       7.83       4.43       2.74
H       7.83       4.04       9.05
H       7.83       2.74      10.96
H       7.83      11.35       6.33
H       7.83      12.65       4.43
H       6.93       6.33      11.35
H       6.93       4.43      12.65
H       6.93       9.05       4.04
H       6.93      10.96       2.74
H       6.93      11.35       9.05
H       6.93      12.65      10.96
H       6.93       4.04       6.33
H       6.93       2.74       4.43
H       0.00       2.33       4.58
H       0.00      15.34       5.13
H       0.00      13.05      10.81
H       0.00       0.04      10.26
H       0.00      10.81       2.33
H       0.00      10.26      15.34
H       0.00       4.58      13.05
H       0.00       5.13       0.04
H       4.92      13.05       4.58
H       4.92       0.04       5.13
H       4.92       2.33      10.81
H       4.92      15.34      10.26
H       4.92       4.58       2.33
H       4.92       5.13      15.34
H       4.92      10.81      13.05
H       4.92      10.26       0.04
C       1.20       5.95       3.77
C       1.20       4.80       3.00
C       1.20       9.43      11.62
C       1.20      10.58      12.38
C       1.20      11.62       5.95
C       1.20      12.38       4.80
C       1.20       3.77       9.43
C       1.20       3.00      10.58
C       3.72       9.43       3.77
C       3.72      10.58       3.00
C       3.72       5.95      11.62
C       3.72       4.80      12.38
C       3.72       3.77       5.95
C       3.72       3.00       4.80
C       3.72      11.62       9.43
C       3.72      12.38      10.58
C       8.64       9.43      11.62
C       8.64      10.58      12.38
C       8.64       5.95       3.77
C       8.64       4.80       3.00
C       8.64       3.77       9.43
C       8.64       3.00      10.58
C       8.64      11.62       5.95
C       8.64      12.38       4.80
C       6.12       5.95      11.62
C       6.12       4.80      12.38
C       6.12       9.43       3.77
C       6.12      10.58       3.00
C       6.12      11.62       9.43
C       6.12      12.38      10.58
C       6.12       3.77       5.95
C       6.12       3.00       4.80
C       0.00       6.54       4.13
C       0.00       4.21       2.62
C       0.00       2.95       1.81
C       0.00       1.73       2.53
C       0.00       1.63       3.97
C       0.00       0.32       4.27
C       0.00      14.96       3.05
C       0.00       8.85      11.26
C       0.00      11.18      12.77
C       0.00      12.44      13.57
C       0.00      13.65      12.86
C       0.00      13.76      11.42
C       0.00      15.07      11.12
C       0.00       0.43      12.34
C       0.00      11.26       6.54
C       0.00      12.77       4.21
C       0.00      13.57       2.95
C       0.00      12.86       1.73
C       0.00      11.42       1.63
C       0.00      11.12       0.32
C       0.00      12.34      14.96
C       0.00       4.13       8.85
C       0.00       2.62      11.18
C       0.00       1.81      12.44
C       0.00       2.53      13.65
C       0.00       3.97      13.76
C       0.00       4.27      15.07
C       0.00       3.05       0.43
C       4.92       8.85       4.13
C       4.92      11.18       2.62
C       4.92      12.44       1.81
C       4.92      13.65       2.53
C       4.92      13.76       3.97
C       4.92      15.07       4.27
C       4.92       0.43       3.05
C       4.92       6.54      11.26
C       4.92       4.21      12.77
C       4.92       2.95      13.57
C       4.92       1.73      12.86
C       4.92       1.63      11.42
C       4.92       0.32      11.12
C       4.92      14.96      12.34
C       4.92       4.13       6.54
C       4.92       2.62       4.21
C       4.92       1.81       2.95
C       4.92       2.53       1.73
C       4.92       3.97       1.63
C       4.92       4.27       0.32
C       4.92       3.05      14.96
C       4.92      11.26       8.85
C       4.92      12.77      11.18
C       4.92      13.57      12.44
C       4.92      12.86      13.65
C       4.92      11.42      13.76
C       4.92      11.12      15.07
C       4.92      12.34       0.43
S       0.00       8.11       4.94
S       0.00       7.28      10.45
S       0.00      10.45       8.11
S       0.00       4.94       7.28
S       4.92       7.28       4.94
S       4.92       8.11      10.45
S       4.92       4.94       8.11
S       4.92      10.45       7.28
N       0.00       0.46       2.00
N       0.00      14.93      13.39
N       0.00      13.39       0.46
N       0.00       2.00      14.93
N       4.92      14.93       2.00
N       4.92       0.46      13.39
N       4.92       2.00       0.46
N       4.92      13.39      14.93
O       1.20       8.18       5.75
O       1.20       7.20       9.64
O       1.20       9.64       8.18
O       1.20       5.75       7.20
O       3.72       7.20       5.75
O       3.72       8.18       9.64
O       3.72       5.75       8.18
O       3.72       9.64       7.20
O       8.63       7.20       9.64
O       8.63       8.18       5.75
O       8.63       5.75       7.20
O       8.63       9.64       8.18
O       6.12       8.18       9.64
O       6.12       7.20       5.75
O       6.12       9.64       7.20
O       6.12       5.75       8.18
O       0.00       9.07       3.89
O       0.00       6.32      11.50
O       0.00      11.50       9.07
O       0.00       3.89       6.32
O       4.92       6.32       3.89
O       4.92       9.07      11.50
O       4.92       3.89       9.07
O       4.92      11.50       6.32
