226

Zn       7.33      -0.91      18.11
Zn       7.33      -0.91      14.94
Zn       4.75       0.00      16.52
Zn       7.33       1.83      16.52
Zn      19.42      13.40       9.85
Zn      19.42      16.14       8.26
Zn      22.00      14.31       8.26
Zn      19.42      13.40       6.68
H      21.58      11.59      13.14
H      23.20       9.68      14.10
H      26.04      10.26      10.48
H      24.43      12.18       9.52
H      24.40       8.37      14.84
H      26.09       6.56      15.89
H       2.16       7.08      12.24
H       0.47       8.89      11.19
H       0.55       5.27      16.64
H       2.28       3.57      17.76
H       5.17       4.15      14.17
H       3.42       5.84      13.04
H       9.48       1.38      11.37
H      11.05       3.27      10.31
H      11.33       5.37      14.44
H       9.76       3.47      15.51
H      12.24       4.59       9.56
H      13.93       6.39       8.51
H      14.17       8.54      12.62
H      12.48       6.73      13.66
H      15.14       7.68       7.76
H      16.93       9.40       6.74
H      17.26      11.50      10.87
H      15.46       9.79      11.88
H       9.22       3.72      20.50
H      10.80       3.68      22.67
H      11.58      -0.85      22.01
H      10.02      -0.81      19.83
H      11.99       3.67      24.18
H      13.68      17.98       1.48
H      14.43      13.44       0.88
H      12.74      -0.87      23.58
H      14.89      17.98       2.98
H      16.67      18.03       4.98
H      17.51      13.51       4.32
H      15.72      13.46       2.33
H      24.14      14.67       5.53
H      25.91      14.57       3.52
H      23.68      10.90       1.75
H      21.91      11.00       3.76
H       0.37      14.55       2.02
H       2.06       0.25      24.72
H      26.64      -3.47      22.97
H      24.95      10.84       0.27
H       3.26       0.25      23.22
H       4.86       0.35      21.07
H       2.64      -3.30      19.26
H       1.05      -3.40      21.41
H      22.26      19.77       7.30
H      23.84      21.61       8.44
H      25.31      18.45      11.50
H      23.74      16.61      10.35
H      25.04      22.91       9.20
H      26.72      -3.90      10.25
H       1.41      -7.03      13.36
H      26.47      19.78      12.32
H       1.19      -2.60      10.99
H       2.96      -0.83      11.93
H       4.48      -3.98      14.99
H       2.69      -5.75      14.05
H      15.33      15.27      11.01
H      13.68      17.03      12.18
H      17.25      19.91      12.91
H      18.90      18.15      11.72
H      12.48      18.32      12.95
H      10.79      20.13      13.99
H      14.36      -5.63      14.78
H      16.04      -7.44      13.74
H       9.58      -7.19      14.73
H       7.87      -5.34      15.65
H      11.41      -2.42      16.35
H      13.12      -4.28      15.45
C       8.76      -2.92      16.52
C       4.62      -1.46      13.99
C       4.62      -1.46      19.06
C       4.62       2.93      16.52
C       8.76       1.46      13.99
C       8.76       1.46      19.06
C      17.99      15.77      10.80
C      22.13      17.24       8.26
C      22.13      12.85      10.80
C      22.13      12.85       5.73
C      17.99      15.77       5.73
C      17.99      11.39       8.26
C      22.89      12.04      11.27
C      22.53      11.31      12.58
C      23.46      10.21      13.13
C      24.75       9.84      12.37
C      25.09      10.55      11.05
C      24.17      11.65      10.50
C      25.70       8.77      12.95
C      25.36       8.10      14.29
C      26.33       7.06      14.89
C       0.88       6.70      14.14
C       1.20       7.36      12.79
C       0.23       8.40      12.19
C       1.86       5.69      14.77
C       1.53       5.03      16.11
C       2.53       4.05      16.76
C       3.86       3.74      16.05
C       4.19       4.39      14.70
C       3.18       5.36      14.05
C       9.51       2.28      13.52
C       9.87       2.23      12.03
C      10.77       3.32      11.41
C      11.31       4.46      12.30
C      10.93       4.52      13.79
C      10.04       3.43      14.40
C      12.25       5.52      11.69
C      12.65       5.43      10.21
C      13.62       6.46       9.61
C      14.18       7.59      10.49
C      13.76       7.70      11.97
C      12.79       6.66      12.57
C      15.18       8.60       9.90
C      15.59       8.50       8.42
C      16.62       9.48       7.84
C      17.24      10.57       8.73
C      16.81      10.69      10.21
C      15.78       9.71      10.79
C       9.51       1.46      20.00
C       9.73       2.75      20.82
C      10.63       2.72      22.07
C      11.32       1.41      22.49
C      11.08       0.12      21.69
C      10.19       0.15      20.44
C      12.25       1.40      23.72
C      12.51       2.70      24.50
C      13.48      17.01       0.91
C      14.19      15.71       1.33
C      13.91      14.40       0.56
C      12.94       0.09      24.15
C      15.18      15.72       2.50
C      15.45      17.03       3.26
C      16.47      17.06       4.41
C      17.24      15.77       4.79
C      16.96      14.46       4.04
C      15.93      14.43       2.89
C      22.89      12.85       4.79
C      24.04      13.87       4.73
C      25.06      13.81       3.57
C      24.92      12.74       2.47
C      23.78      11.70       2.55
C      22.76      11.76       3.71
C      25.91      12.71       1.30
C       0.27      13.77       1.21
C       1.24      13.77       0.01
C       1.09      -1.60      23.69
C      26.74      -2.68      23.79
C      25.77      11.63       0.20
C       2.03      -1.57      22.47
C       3.13      -0.50      22.38
C       4.05      -0.45      21.14
C       3.86      -1.46      20.00
C       2.77      -2.54      20.10
C       1.86      -2.60      21.34
C      22.89      18.05       8.73
C      22.91      19.49       8.19
C      23.82      20.55       8.85
C      24.70      20.16      10.05
C      24.66      18.73      10.61
C      23.76      17.67       9.95
C      25.64      21.21      10.67
C      25.70      22.63      10.09
C      26.67      -4.95      10.69
C       0.82      -5.34      11.87
C       0.74      -6.75      12.47
C      26.53      20.83      11.88
C       1.82      -4.31      12.44
C       1.89      -2.89      11.84
C       2.91      -1.88      12.38
C       3.86      -2.28      13.52
C       3.78      -3.69      14.14
C       2.75      -4.70      13.60
C      17.24      16.59      11.27
C      15.74      16.26      11.41
C      14.79      17.27      12.08
C      15.34      18.60      12.62
C      16.84      18.92      12.50
C      17.79      17.92      11.82
C      14.38      19.63      13.26
C      12.88      19.32      13.34
C      11.91      20.35      13.94
C      12.45      -6.92      14.45
C      13.96      -6.62      14.39
C      14.93      -7.66      13.79
C      11.48      -5.87      15.01
C       9.97      -6.18      15.08
C       8.99      -5.11      15.60
C       9.51      -3.74      16.05
C      11.02      -3.44      16.01
C      12.01      -4.50      15.49
O       6.69      -0.00      16.52
O       8.42      -2.45      17.69
O       5.91      -1.56      13.82
O       4.01      -0.89      18.06
O       8.42      -2.45      15.36
O       5.91      -1.56      19.23
O       4.01      -0.89      14.99
O       5.91       3.12      16.52
O       8.42       0.22      13.82
O       4.01       1.77      16.52
O       8.42       2.23      14.99
O       8.42       2.23      18.06
O       8.42       0.22      19.23
O      20.06      14.31       8.26
O      18.33      14.53      10.96
O      20.84      17.43       8.26
O      22.74      13.42       9.80
O      18.33      16.54       9.80
O      20.84      12.75      10.96
O      22.74      16.09       8.26
O      20.84      12.75       5.56
O      18.33      16.54       6.73
O      22.74      13.42       6.73
O      18.33      14.53       5.56
O      18.33      11.87       7.10
O      18.33      11.87       9.43
