70

Co       0.00       5.25       0.00
Co       3.59       0.00       5.54
H       4.83       4.20       9.97
H       2.92       4.88       9.00
H       4.41       8.65       8.85
H       6.26       7.86       9.85
H       1.55       8.63       7.00
H       0.20       7.25       8.43
H       5.93       9.44       6.64
H      -0.36      10.13       7.62
H       6.36       3.40       7.77
H       4.50       2.61       6.77
H       1.01       3.38       9.62
H       2.37       2.01       8.19
H       2.35       6.29       1.10
H       4.25       5.61       2.08
H       2.77       1.85       2.23
H       0.91       2.63       1.23
H       5.63       1.87       4.08
H       6.98       3.24       2.65
H       1.24       1.05       4.44
H       7.54       0.36       3.46
H       0.82       7.09       3.31
H       2.68       7.88       4.31
H       6.16       7.11       1.46
H       4.81       8.48       2.89
C       4.72       5.11       9.75
C       3.62       5.51       9.18
C       4.48       7.73       9.09
C       5.55       7.26       9.66
C       3.46       6.85       8.85
C       2.27       7.31       8.32
C       2.38       8.27       7.30
C       0.95       6.86       8.85
C       6.05      10.36       6.87
C       7.15       0.26       7.43
C       6.29       2.48       7.53
C       5.22       2.02       6.95
C       7.30       1.60       7.77
C       0.29       2.07       8.30
C       0.19       3.02       9.32
C       1.61       1.61       7.76
C       2.46       5.38       1.33
C       3.56       4.99       1.90
C       2.70       2.76       1.99
C       1.63       3.23       1.41
C       3.71       3.65       2.23
C       4.90       3.18       2.76
C       4.80       2.22       3.78
C       6.23       3.63       2.23
C       1.13       0.13       4.21
C       0.03      10.23       3.64
C       0.89       8.01       3.55
C       1.96       8.48       4.12
C      -0.12       8.89       3.31
C       6.89       8.43       2.78
C       6.99       7.47       1.76
C       5.56       8.88       3.31
N       5.68       5.97      10.00
N       5.09       0.73       6.62
N       1.50       4.52       1.08
N       2.09       9.77       4.46
O       3.47       8.77       6.68
O       0.66       6.04       9.78
O      -0.91       3.52       9.94
O       1.90       0.79       6.83
O       3.70       1.72       4.40
O       6.52       4.45       1.30
O       8.09       6.97       1.14
O       5.27       9.70       4.24
