104

Al       3.44       7.18       4.14
Al       3.44       8.68       6.75
Al       3.44      10.18       4.14
Al      10.32       1.50      10.89
Al      10.32       0.00       8.29
Al      10.32      -1.50      10.89
H      13.51      12.44       4.91
H       1.78      11.68       9.02
H       0.26      -3.76      10.12
H      11.99      -3.00       6.02
H       7.10      10.48       8.36
H       5.15      13.64       5.57
H       6.66      -1.80       6.68
H       8.62      -4.96       9.46
H       6.49       4.38       4.87
H       5.75       6.21       9.06
H       7.27       4.30      10.17
H       8.01       2.46       5.97
H       1.89       5.56       8.97
H      13.39       5.03       4.96
H      11.87       3.12       6.06
H       0.37       3.65      10.08
H      13.35       2.28      13.69
H      12.67      -2.28      14.16
H       0.42       6.39       1.34
H       1.10      10.96       0.87
H       8.00       9.13       2.39
H       4.25      -0.45      14.85
H       5.76      -0.45      12.64
H       9.52       9.13       0.19
C       5.14       8.68       2.54
C       5.14       6.54       6.25
C       5.14      10.82       6.25
C       1.74       8.68       2.54
C       1.74       6.54       6.25
C       1.74      10.82       6.25
C      12.02       0.00      12.49
C      12.02       2.14       8.79
C      12.02      -2.14       8.79
C       8.63       0.00      12.49
C       8.63       2.14       8.79
C       8.63      -2.14       8.79
C      13.62      12.68       6.02
C       0.87      11.92       6.88
C       1.02      12.25       8.38
C       0.15      -4.01       9.01
C      12.89      -3.24       8.15
C      12.74      -3.57       6.65
C       7.01      11.56       8.00
C       6.01      11.92       6.88
C       5.88      13.37       6.40
C       6.76      -2.88       7.03
C       7.75      -3.24       8.15
C       7.88      -4.70       8.63
C       6.66       4.36       5.99
C       6.01       5.44       6.88
C       6.23       5.42       8.41
C       7.11       4.32       9.04
C       7.75       3.24       8.15
C       7.53       3.26       6.63
C       1.09       5.04       8.35
C       0.87       5.44       6.88
C      13.55       4.74       6.04
C      12.68       3.64       6.68
C      12.89       3.24       8.15
C       0.21       3.94       8.99
C      13.52       1.31      14.26
C      12.89       0.00      13.76
C      13.13      -1.31      14.53
C       0.24       7.37       0.77
C       0.87       8.68       1.27
C       0.63       9.99       0.50
C       7.52       8.94       1.38
C       6.01       8.68       1.27
C       5.37      -0.26      14.93
C       6.24      -0.26      13.66
C       7.75       0.00      13.76
C       8.40       8.94       0.11
O       4.69       7.57       2.97
O       4.69       7.47       7.00
O       4.69      11.00       5.07
O       4.69       9.79       2.97
O       4.69       9.89       7.00
O       4.69       6.35       5.07
O       2.19       7.57       2.97
O       2.19       7.47       7.00
O       2.19      11.00       5.07
O       2.19       9.79       2.97
O       2.19       9.89       7.00
O       2.19       6.35       5.07
O       3.44       8.68       5.01
O      11.58       1.11      12.06
O      11.58       1.21       8.04
O      11.58      -2.32       9.96
O      11.58      -1.11      12.06
O      11.58      -1.21       8.04
O      11.58       2.32       9.96
O       9.07       1.11      12.06
O       9.07       1.21       8.04
O       9.07      -2.32       9.96
O       9.07      -1.11      12.06
O       9.07      -1.21       8.04
O       9.07       2.32       9.96
O      10.32       0.00      10.02
