224

Al       6.05      15.26      10.55
Al       6.05      16.76       7.95
Al       6.05      13.76       7.95
Al      18.15      -0.00      15.89
Al      18.15      -1.50      18.49
Al      18.15       1.50      18.49
H      22.47      -1.81      15.17
H      24.04      -3.75      14.19
H      20.80      -6.91      15.26
H      19.22      -4.96      16.22
H       0.93      -5.13      13.41
H       2.44      -7.05      12.31
H      23.46      20.30      13.42
H      21.94      -8.31      14.53
H       3.53      22.11      11.51
H       4.99      20.23      10.28
H       1.76      17.05      11.30
H       0.31      18.93      12.54
H       6.86      19.55      11.80
H       8.41      21.37      13.01
H      12.16      19.53      10.99
H      10.61      17.71       9.77
H       9.50      -7.79      13.82
H      11.02      -5.88      14.92
H      14.80      22.78      12.97
H      13.28      20.87      11.86
H      12.11      -4.50      15.71
H      13.59      -2.50      16.71
H      17.36      -4.29      14.68
H      15.88      -6.30      13.69
H       7.24      10.26      10.04
H       8.84       8.35      11.02
H      11.85      11.58      12.43
H      10.25      13.50      11.46
H       9.94       6.97      11.80
H      11.45       5.06      12.91
H      14.52       8.27      14.27
H      13.00      10.18      13.16
H      12.54       3.68      13.71
H      13.98       1.78      14.92
H      17.00       4.99      16.38
H      15.57       6.89      15.15
H      21.74       3.87      17.75
H      23.36       5.69      16.61
H      21.59       4.66      12.45
H      19.96       2.86      13.59
H       0.25       7.05      15.81
H       1.77       8.97      14.71
H       0.06       7.91      10.53
H      22.75       5.99      11.63
H       2.86      10.35      13.92
H       4.28      12.35      12.85
H       2.50      11.38       8.67
H       1.09       9.36       9.74
H       5.20      15.92       3.64
H       3.71      15.79       1.42
H       0.06      14.40       3.94
H       1.55      14.55       6.17
H       2.62       0.50      26.26
H       1.10       0.51      24.05
H      21.67      14.32       0.12
H      23.19      14.32       2.33
H       0.01       0.51      22.47
H      22.68       0.65      20.28
H      19.01      -0.70      22.78
H      20.55      -0.85      24.96
H       8.89      12.95       5.01
H      10.29      12.95       2.72
H       9.92      17.57       2.49
H       8.53      17.57       4.78
H      11.37      12.95       1.12
H      12.89      -2.31      25.35
H      12.47       2.30      25.06
H      10.95      17.56       0.84
H      13.98      -2.31      23.77
H      15.61      -2.31      21.64
H      15.29       2.31      21.40
H      13.65       2.31      23.51
C       7.75      13.12      10.05
C       7.75      17.40      10.05
C       7.75      15.26       6.34
C       4.35      13.12      10.05
C       4.35      17.40      10.05
C       4.35      15.26       6.34
C      19.85       2.14      16.39
C      19.85      -2.14      16.39
C      19.85      -0.00      20.10
C      16.46       2.14      16.39
C      16.46      -2.14      16.39
C      16.46      -0.00      20.10
C      20.72      -3.24      15.75
C      22.11      -2.89      15.18
C      23.01      -4.01      14.62
C      22.53      -5.47      14.64
C      21.15      -5.82      15.24
C      20.25      -4.70      15.79
C      23.42      -6.58      14.04
C       0.57      -6.22      13.41
C       1.44      -7.31      12.78
C       0.95      21.75      12.77
C      23.81      21.38      13.42
C      22.94      -8.04      14.06
C       1.81      20.66      12.10
C       3.16      21.03      11.46
C       4.00      19.95      10.76
C       3.48      18.50      10.68
C       2.14      18.13      11.34
C       1.30      19.21      12.05
C       8.62      18.50      10.68
C       7.99      19.54      11.62
C       8.88      20.59      12.32
C      10.40      20.59      12.08
C      11.03      19.53      11.16
C      10.14      18.49      10.46
C      11.28      21.67      12.75
C      10.63      -7.78      13.63
C      11.50      -6.68      14.27
C      13.02      -6.66      14.01
C      13.67      22.77      13.15
C      12.80      21.67      12.51
C      13.88      -5.54      14.62
C      13.23      -4.45      15.49
C      14.08      -3.31      16.06
C      15.59      -3.24      15.75
C      16.25      -4.33      14.90
C      15.39      -5.49      14.33
C       8.62      12.02      10.68
C       8.22      10.54      10.55
C       9.14       9.44      11.11
C      10.46       9.82      11.81
C      10.87      11.30      11.92
C       9.95      12.40      11.36
C      11.35       8.72      12.41
C      10.91       7.25      12.33
C      11.78       6.15      12.96
C      13.09       6.52      13.68
C      13.54       7.99      13.74
C      12.67       9.09      13.11
C      13.94       5.43      14.35
C      13.49       3.96      14.28
C      14.31       2.86      14.98
C      15.59       3.24      15.75
C      16.05       4.71      15.81
C      15.23       5.80      15.11
C      20.72       3.24      15.75
C      21.71       4.04      16.62
C      22.64       5.09      15.97
C      22.58       5.32      14.45
C      21.62       4.50      13.58
C      20.68       3.46      14.23
C      23.48       6.39      13.81
C       0.21       7.24      14.69
C       1.08       8.33      14.06
C       1.02       8.59      12.54
C       0.10       7.73      11.65
C      23.44       6.63      12.29
C       1.86       9.71      11.91
C       2.78      10.57      12.80
C       3.60      11.72      12.19
C       3.48      12.02      10.68
C       2.57      11.16       9.79
C       1.76      10.00      10.40
C       3.48      15.26       5.07
C       4.10      15.60       3.71
C       3.25      15.52       2.43
C       1.77      15.10       2.52
C       1.16      14.73       3.88
C       2.01      14.82       5.16
C       0.91      15.06       1.24
C       1.52       0.20      26.33
C       0.65       0.20      25.06
C      23.37      -0.20      25.14
C      22.77      14.63       0.06
C      23.64      14.63       1.33
C      22.49      -0.16      23.88
C      23.11       0.26      22.53
C      22.22       0.34      21.27
C      20.72      -0.00      21.37
C      20.11      -0.44      22.71
C      21.00      -0.52      23.97
C       8.62      15.26       5.07
C       9.12      13.93       4.47
C       9.92      13.93       3.16
C      10.22      15.26       2.44
C       9.71      16.59       3.03
C       8.91      16.59       4.34
C      11.06      15.26       1.15
C      11.60      13.93       0.59
C      12.48      -1.33      25.76
C      12.80      -0.00      25.05
C      12.24       1.32      25.59
C      11.36      16.58       0.43
C      13.71      -0.00      23.81
C      14.26      -1.33      23.26
C      15.20      -1.33      22.04
C      15.59      -0.00      21.37
C      15.02       1.33      21.90
C      14.07       1.33      23.12
O       7.31      14.05      10.80
O       7.31      17.59       8.87
O       7.31      14.15       6.77
O       7.31      12.94       8.87
O       7.31      16.37       6.77
O       7.31      16.47      10.80
O       4.80      14.05      10.80
O       4.80      17.59       8.87
O       4.80      14.15       6.77
O       4.80      12.94       8.87
O       4.80      16.37       6.77
O       4.80      16.47      10.80
O       6.05      15.26       8.81
O      19.41       1.21      15.64
O      19.41      -2.32      17.57
O      19.41       1.11      19.67
O      19.41       2.32      17.57
O      19.41      -1.11      19.67
O      19.41      -1.21      15.64
O      16.90       1.21      15.64
O      16.90      -2.32      17.57
O      16.90       1.11      19.67
O      16.90       2.32      17.57
O      16.90      -1.11      19.67
O      16.90      -1.21      15.64
O      18.15      -0.00      17.62
