224

Al      18.15      13.76       7.94
Al      18.15      16.76       7.94
Al      18.15      15.26      10.55
Al       6.05       1.50      18.49
Al       6.05      -1.50      18.49
Al       6.05      -0.00      15.89
H       5.28      -0.01      22.85
H       3.75       0.13      25.05
H      24.14       0.21      22.41
H       1.46       0.06      20.20
H       2.66      15.41       0.20
H       1.14      15.41       2.41
H      21.52       0.29      26.22
H      23.04       0.30      24.01
H       0.05      15.40       4.00
H      22.75      15.26       6.21
H      18.92      15.31       3.60
H      20.43      15.46       1.39
H      17.07      13.99       3.80
H      15.48      13.88       1.64
H      12.26      16.37       3.87
H      13.86      16.49       6.03
H      14.38      13.86       0.06
H      12.86      -1.40      24.29
H       9.61      16.30       0.09
H      11.12      16.30       2.30
H      11.78      -1.39      22.70
H      10.33      -1.28      20.44
H       7.11       1.24      22.63
H       8.55       1.12      24.89
H       7.82       2.91      13.59
H       9.24       4.92      12.52
H      11.02       5.90      16.69
H       9.61       3.88      17.76
H      10.32       6.31      11.73
H      11.84       8.22      10.62
H      13.58       9.25      14.80
H      12.06       7.34      15.91
H      12.93       9.59       9.83
H      14.54      11.41       8.69
H      16.37      12.38      12.84
H      14.75      10.58      13.98
H      22.49      12.26       9.18
H      24.06      10.45      10.38
H      20.78       9.72      13.58
H      19.20      11.53      12.38
H       0.95       9.08      11.18
H       2.46       7.17      12.29
H      23.43       6.47      15.54
H      21.91       8.39      14.43
H       3.55       5.79      13.08
H       5.02       3.79      14.09
H       1.74       3.01      17.28
H       0.28       5.02      16.28
H       1.51      -2.57      16.79
H      24.18      -4.40      15.58
H       3.68      -5.99      13.28
H       5.22      -4.17      14.51
H      23.09      -5.76      14.77
H      21.57      -7.68      13.66
H       1.05      21.28      11.31
H       2.57      23.20      12.41
H      20.48      21.47      12.88
H      18.99      19.48      11.89
H      22.68      17.84       9.60
H      24.17      19.84      10.58
H      13.60      17.79       9.69
H      12.07      19.62      10.91
H      15.80      21.29      13.10
H      17.34      19.47      11.87
H      10.98      20.99      11.72
H       9.46      22.90      12.82
H      13.17      -5.98      15.08
H      14.69      -7.90      13.97
H       8.37      -6.24      13.61
H       6.87      -4.26      14.60
H      10.59      -2.54      16.78
H      12.08      -4.54      15.80
C      16.46      13.12      10.05
C      16.46      15.26       6.34
C      16.46      17.40      10.05
C      19.85      13.12      10.05
C      19.85      15.26       6.34
C      19.85      17.40      10.05
C       4.35       2.14      16.39
C       4.35      -0.00      20.09
C       4.35      -2.14      16.39
C       7.75       2.14      16.39
C       7.75      -0.00      20.09
C       7.75      -2.14      16.39
C       3.48      -0.00      21.36
C       4.14       0.03      22.75
C       3.27       0.12      24.02
C       1.73       0.17      23.89
C       1.07       0.16      22.50
C       1.95       0.07      21.24
C       0.86       0.21      25.16
C       1.52      15.44       0.11
C       0.65      15.44       1.38
C      23.32      15.47       1.26
C      22.66       0.26      26.31
C      23.53       0.26      25.04
C      22.45      15.43       2.53
C      23.12      15.38       3.91
C      22.26      15.30       5.19
C      20.72      15.26       5.07
C      20.05      15.33       3.68
C      20.92      15.41       2.41
C      15.59      15.26       5.07
C      16.05      14.50       3.82
C      15.14      14.43       2.58
C      13.76      15.13       2.59
C      13.29      15.87       3.86
C      14.20      15.94       5.10
C      12.87      15.09       1.34
C      13.36      14.38       0.07
C      12.49      -0.88      25.23
C      11.13      -0.17      25.24
C      10.62      15.78       0.08
C      11.49      15.78       1.35
C      10.28      -0.13      23.96
C      10.78      -0.83      22.68
C       9.95      -0.77      21.39
C       8.62      -0.00      21.36
C       8.10       0.68      22.64
C       8.93       0.61      23.94
C       8.62       3.24      15.75
C       8.50       3.55      14.25
C       9.32       4.70      13.63
C      10.24       5.55      14.52
C      10.34       5.26      16.03
C       9.53       4.10      16.65
C      11.09       6.68      13.90
C      11.01       6.94      12.38
C      11.88       8.04      11.75
C      12.83       8.87      12.63
C      12.89       8.63      14.15
C      12.01       7.53      14.78
C      13.73       9.94      11.99
C      13.66      10.19      10.47
C      14.59      11.23       9.82
C      15.59      12.02      10.68
C      15.64      11.79      12.20
C      14.71      10.75      12.86
C      20.72      12.02      10.68
C      22.12      11.72      10.11
C      23.02      10.68      10.80
C      22.53       9.94      12.06
C      21.14      10.26      12.64
C      20.23      11.30      11.95
C      23.41       8.87      12.72
C       0.58       8.53      12.11
C       1.45       7.43      12.74
C       0.95       6.67      13.99
C      23.79       7.03      14.61
C      22.92       8.13      13.98
C       1.80       5.54      14.59
C       3.17       5.20      13.97
C       4.01       4.05      14.55
C       3.48       3.24      15.75
C       2.13       3.60      16.39
C       1.29       4.75      15.81
C       3.48      -3.24      15.75
C       1.97      -3.30      16.05
C       1.09      -4.35      15.35
C       1.72      -5.34      14.35
C       3.22      -5.26      14.03
C       4.11      -4.22      14.74
C       0.84      -6.41      13.68
C      23.55      -6.51      14.03
C      22.68      -7.60      13.40
C      23.30      21.92      12.41
C       0.59      22.02      12.05
C       1.46      23.12      12.68
C      22.44      20.79      11.81
C      20.95      20.69      12.18
C      20.09      19.55      11.61
C      20.72      18.50      10.68
C      22.21      18.61      10.30
C      23.07      19.76      10.86
C      15.59      18.50      10.68
C      14.07      18.54      10.41
C      13.19      19.59      11.11
C      13.82      20.60      12.09
C      15.34      20.55      12.38
C      16.22      19.50      11.67
C      12.95      21.67      12.75
C      11.44      21.75      12.43
C      10.57      22.84      13.07
C      11.21      -6.65      14.02
C      12.70      -6.74      14.36
C      13.58      -7.84      13.73
C      10.34      -5.53      14.62
C       8.84      -5.46      14.28
C       7.98      -4.31      14.85
C       8.62      -3.24      15.75
C      10.12      -3.33      16.11
C      10.98      -4.47      15.54
O      16.90      12.94       8.87
O      16.90      16.37       6.77
O      16.90      16.47      10.79
O      16.90      14.05      10.80
O      16.90      17.59       8.87
O      16.90      14.15       6.77
O      19.41      12.94       8.87
O      19.41      16.37       6.77
O      19.41      16.47      10.79
O      19.41      14.05      10.80
O      19.41      17.59       8.87
O      19.41      14.15       6.77
O      18.15      15.26       8.81
O       4.80       2.32      17.56
O       4.80      -1.11      19.66
O       4.80      -1.21      15.64
O       4.80       1.21      15.64
O       4.80      -2.33      17.56
O       4.80       1.11      19.66
O       7.31       2.32      17.56
O       7.31      -1.11      19.66
O       7.31      -1.21      15.64
O       7.31       1.21      15.64
O       7.31      -2.33      17.56
O       7.31       1.11      19.66
O       6.05       0.00      17.62
