57

C      18.28      10.70       8.58
C      17.26      10.03       7.70
C       7.67       9.42       6.46
C      15.49       5.42       8.58
C      15.42       6.64       7.70
C      14.56       6.38       6.46
C      12.31      10.48       8.58
C      13.40       9.93       7.70
C       8.49       1.94       6.46
C       2.20       1.12       1.75
C       3.22       1.79       2.64
C      12.80       2.41       3.88
C       4.99       6.40       1.75
C       5.06       5.18       2.64
C       5.92       5.44       3.88
C       8.17       1.34       1.75
C       7.08       1.89       2.64
C      11.99       9.88       3.88
H      16.59      10.68       7.42
H      16.80       9.34       8.20
H      16.31       6.89       7.42
H      15.04       7.38       8.20
H      13.17       9.03       7.42
H      14.23       9.88       8.20
H       3.88       1.14       2.92
H       3.68       2.49       2.14
H       4.16       4.93       2.92
H       5.43       4.44       2.14
H       7.31       2.79       2.92
H       6.25       1.94       2.14
Nd       0.00       0.00       0.00
Nd       5.12       2.96       6.25
Nd      15.36       8.87       4.09
O      18.59      10.17       9.68
O      13.73       2.91       8.17
O       8.90       9.62       6.26
O       6.96       8.69       5.72
O      14.87       5.41       9.68
O       5.89       4.39       8.17
O      14.12       5.21       6.26
O      14.28       7.36       5.72
O      12.61      11.01       9.68
O      11.10      10.44       8.17
O       7.69       2.90       6.26
O       9.47       1.68       5.72
O       1.88       1.65       0.66
O       6.75       8.92       2.17
O      11.57       2.20       4.08
O      13.52       3.13       4.62
O       5.60       6.41       0.66
O      14.59       7.43       2.17
O       6.36       6.61       4.08
O       6.19       4.46       4.62
O       7.87       0.81       0.66
O       9.38       1.38       2.17
O      12.79       8.92       4.08
O      11.00      10.14       4.62
