544

Zn       2.40      19.56      22.43
Zn       5.07      18.41      22.16
Zn      -0.65      22.97      26.04
Zn       5.29      22.50       3.98
Zn      -1.55      17.18       7.15
Zn       8.10      18.33       6.89
Zn       1.50      13.77      10.77
Zn       7.89      14.24      19.25
Zn       6.39       4.93       8.12
Zn       3.71       6.08       8.38
Zn       9.43       1.52       4.50
Zn       3.50       1.99      26.56
Zn      10.33       7.32      23.39
Zn       0.68       6.16      23.65
Zn       7.29      10.72      19.77
Zn       0.89      10.25      11.29
H       0.61      20.53      24.67
H       1.38      21.80      24.07
H      -0.62      19.29      21.59
H      -0.61      19.02      23.17
H       1.35      22.25      21.67
H       0.56      21.27      20.68
H      -1.82      20.47      24.64
H      -2.65      21.71      24.07
H      -1.47      23.64      23.14
H       0.13      23.67      23.14
H      -1.78      21.20      20.70
H      -2.61      22.17      21.67
H       6.00      15.84      21.08
H       6.70      16.91      20.12
H       7.11      17.28      24.11
H       6.24      16.07      23.52
H       8.00      18.73      21.05
H       8.16      18.88      22.64
H       7.31      14.26      22.36
H       8.91      14.23      22.22
H      10.01      15.91      20.72
H       9.12      16.97      19.91
H      -2.13      16.08      23.12
H       9.46      17.28      23.88
H       3.78      14.29      22.97
H       3.99      11.86      23.41
H       3.03       9.80      23.64
H      -0.68      11.37      23.23
H      -0.87      13.85      22.81
H       0.09      15.90      22.43
H       6.19      18.61      26.29
H       6.67      18.98      28.49
H       5.98      19.86       0.17
H       2.34      21.38       0.67
H       1.72      20.85      29.02
H       2.42      19.98      26.78
H       4.58      17.11      18.07
H       4.88      15.63      16.05
H       4.20      14.99      13.96
H       1.00      17.42      14.12
H       0.65      18.80      16.17
H       1.31      19.49      18.28
H       8.04      23.27      25.85
H       5.88      22.12      25.76
H       3.55      22.17      25.84
H       7.11       1.67      26.40
H       9.31       2.85      26.60
H      11.62       2.78      26.59
H       0.24      16.21       9.40
H      -0.53      14.94       8.80
H       1.47      17.45       6.32
H       1.46      17.72       7.89
H      -0.50      14.48       6.40
H       0.28      15.47       5.41
H       2.67      16.27       9.37
H       3.50      15.03       8.80
H       2.32      13.10       7.87
H       0.72      13.06       7.87
H       2.63      15.54       5.43
H       3.46      14.57       6.40
H       7.17      20.90       5.81
H       6.48      19.83       4.85
H       6.07      19.45       8.84
H       6.93      20.66       8.25
H       5.18      18.00       5.78
H       5.02      17.85       7.37
H       5.86      22.48       7.09
H       4.26      22.50       6.95
H       3.16      20.83       5.45
H       4.06      19.77       4.64
H       2.98      20.65       7.85
H       3.71      19.45       8.61
H      -2.93      22.45       7.70
H       0.40       0.38       8.14
H       1.36       2.45       8.37
H       5.07       0.87       7.96
H       1.72      22.89       7.54
H       0.75      20.84       7.16
H       6.99      18.12      11.02
H       6.50      17.75      13.22
H       7.20      16.88      15.44
H      -1.50      15.35      15.94
H      -0.87      15.89      13.75
H      -1.58      16.76      11.51
H       8.60      19.63       2.80
H       8.29      21.10       0.78
H       8.98      21.74      29.23
H      -0.15      19.32      29.39
H       0.20      17.94       0.90
H      -0.46      17.25       3.01
H       5.13      13.47      10.58
H       7.30      14.62      10.49
H       9.62      14.57      10.57
H       9.61      10.58      11.13
H       7.40       9.40      11.33
H       5.10       9.47      11.32
H       8.18       3.96       5.87
H       7.41       2.69       6.47
H       9.40       5.20       8.95
H       9.40       5.48       7.38
H       7.44       2.24       8.88
H       8.22       3.22       9.86
H      10.60       4.02       5.90
H      11.43       2.78       6.47
H      10.26       0.85       7.40
H       8.66       0.82       7.40
H      10.56       3.29       9.84
H      11.40       2.32       8.88
H       2.78       8.66       9.46
H       2.09       7.58      10.42
H       1.68       7.21       6.44
H       2.54       8.42       7.02
H       0.78       5.76       9.49
H       0.63       5.61       7.90
H       1.47      10.24       8.18
H      -0.13      10.26       8.32
H      -1.23       8.58       9.83
H      -0.33       7.53      10.63
H      10.91       8.41       7.42
H      -0.68       7.21       6.66
H       5.01      10.20       7.57
H       4.79      12.63       7.13
H       5.75      14.70       6.90
H       9.46      13.12       7.31
H       9.66      10.64       7.73
H       8.69       8.59       8.11
H       2.60       5.88       4.25
H       2.11       5.51       2.06
H       2.80       4.63      30.37
H       6.44       3.11      29.87
H       7.07       3.64       1.52
H       6.36       4.52       3.76
H       4.20       7.39      12.47
H       3.90       8.86      14.49
H       4.58       9.50      16.58
H       7.78       7.07      16.42
H       8.13       5.69      14.37
H       7.48       5.00      12.27
H       0.74       1.23       4.69
H       2.91       2.38       4.78
H       5.23       2.32       4.70
H       1.68      22.82       4.14
H      -0.53      21.65       3.94
H      -2.83      21.71       3.95
H       8.54       8.29      21.14
H       9.31       9.56      21.74
H       7.32       7.04      24.23
H       7.32       6.77      22.65
H       9.28      10.01      24.15
H       8.50       9.02      25.14
H       6.12       8.22      21.17
H       5.29       9.47      21.75
H       6.46      11.40      22.67
H       8.06      11.43      22.67
H       6.15       8.96      25.11
H       5.32       9.92      24.15
H       1.61       3.59      24.73
H       2.31       4.67      25.69
H       2.72       5.04      21.71
H       1.85       3.83      22.30
H       3.61       6.49      24.76
H       3.77       6.64      23.17
H       2.92       2.01      23.45
H       4.52       1.99      23.59
H       5.62       3.67      25.10
H       4.73       4.72      25.91
H       5.80       3.84      22.70
H       5.07       5.04      21.93
H      11.71       2.05      22.84
H       8.38      24.11      22.41
H       7.42      22.04      22.17
H       3.71      23.62      22.59
H       7.06       1.60      23.00
H       8.03       3.66      23.39
H       1.80       6.37      19.53
H       2.28       6.74      17.33
H       1.59       7.62      15.10
H      10.28       9.14      14.60
H       9.65       8.61      16.79
H      10.36       7.73      19.03
H       0.19       4.86      27.74
H       0.49       3.39      29.76
H      -0.19       2.75       1.31
H       8.94       5.18       1.15
H       8.59       6.55      29.64
H       9.24       7.24      27.54
H       3.65      11.02      19.96
H       1.49       9.87      20.05
H      -0.84       9.92      19.97
H      -0.83      13.92      19.42
H       1.38      15.09      19.21
H       3.68      15.03      19.22
C       0.58      21.23      23.97
C      -0.62      19.72      22.48
C       0.55      21.67      21.58
C      -1.82      21.18      23.95
C      -0.66      23.08      23.05
C      -1.79      21.62      21.60
C       6.80      16.42      20.97
C       7.04      16.64      23.36
C       8.09      18.23      21.90
C       8.11      14.82      22.23
C       9.19      16.47      20.76
C       9.38      16.65      23.13
C       2.65      16.66      22.53
C       2.03      15.30      22.73
C       2.83      14.19      22.95
C       2.28      12.94      23.14
C       3.05      11.79      23.36
C       2.48      10.56      23.51
C       1.08      10.42      23.46
C       0.26      11.49      23.26
C       0.86      12.81      23.10
C       0.07      13.93      22.84
C       0.64      15.15      22.63
C       0.46       9.04      23.60
C       4.03      19.13      24.85
C       4.25      19.28      26.32
C       5.52      18.98      26.85
C       5.81      19.20      28.15
C       4.84      19.76      29.02
C       5.12      20.07      30.35
C       4.19      20.67       0.62
C       2.98      20.96       0.10
C       2.60      20.67      29.33
C       3.56      20.09      28.46
C       3.29      19.80      27.13
C       4.61      21.09       2.01
C       3.36      18.74      19.80
C       3.00      18.33      18.38
C       3.78      17.44      17.68
C       3.42      17.03      16.40
C       4.11      16.04      15.67
C       3.69      15.64      14.43
C       2.55      16.17      13.86
C       1.80      17.09      14.51
C       2.22      17.54      15.81
C       1.45      18.45      16.55
C       1.83      18.86      17.80
C       1.96      15.66      12.50
C       0.97       0.78      26.04
C      11.81       0.74      26.16
C       7.58      24.08      26.02
C       6.10      24.08      26.10
C       5.42      22.93      25.91
C       4.05      22.97      25.94
C       3.34      24.23      26.11
C       7.57       0.85      26.29
C       9.08       0.84      26.31
C       9.77       2.02      26.47
C      11.12       1.99      26.44
C       1.88      24.22      26.01
C       0.27      15.51       8.70
C       1.47      17.01       7.20
C       0.30      15.07       6.31
C       2.67      15.56       8.68
C       1.51      13.65       7.78
C       2.64      15.12       6.33
C       6.38      20.32       5.70
C       6.14      20.10       8.09
C       5.09      18.51       6.63
C       5.06      21.92       6.96
C       3.98      20.27       5.49
C       3.79      20.09       7.86
C      -1.80      20.08       7.26
C      -1.18      21.44       7.46
C      -1.98      22.55       7.68
C      -1.43      23.80       7.87
C       1.34       0.46       8.09
C       1.91       1.69       8.24
C       3.31       1.82       8.19
C       4.13       0.76       7.99
C      -0.01      23.93       7.82
C       0.78      22.80       7.57
C       0.21      21.58       7.36
C       3.93       3.20       8.33
C       9.15      17.61       9.58
C       8.93      17.46      11.05
C       7.66      17.76      11.58
C       7.37      17.54      12.88
C       8.34      16.98      13.75
C       8.05      16.67      15.08
C       8.99      16.07      15.89
C      -2.13      15.78      15.37
C      -1.75      16.07      14.06
C       9.61      16.64      13.19
C      -2.44      16.93      11.86
C       8.57      15.65      17.28
C      -2.51      18.00       4.53
C      -2.15      18.41       3.11
C       9.39      19.29       2.41
C      -2.57      19.71       1.13
C       9.06      20.70       0.40
C      -2.85      21.10      29.70
C      -1.71      20.57      29.13
C      -0.95      19.65      29.78
C      -1.37      19.20       0.54
C      -0.60      18.29       1.28
C      -0.98      17.88       2.53
C      -1.11      21.08      27.77
C       3.42      11.47      10.77
C       4.91      11.51      10.89
C       5.60      12.66      10.74
C       7.08      12.66      10.83
C       7.76      13.80      10.64
C       9.13      13.76      10.67
C       9.83      12.51      10.84
C       9.15      11.40      11.02
C       7.64      11.40      11.04
C       6.95      10.22      11.20
C       5.60      10.26      11.17
C      -1.03      12.52      10.74
C       8.21       3.26       6.58
C       9.40       4.77       8.07
C       8.23       2.82       8.96
C      10.61       3.32       6.59
C       9.45       1.41       7.49
C      10.57       2.87       8.95
C       1.99       8.08       9.57
C       1.75       7.85       7.18
C       0.70       6.26       8.64
C       0.67       9.67       8.31
C      -0.41       8.03       9.79
C      -0.60       7.84       7.42
C       6.13       7.83       8.01
C       6.75       9.19       7.81
C       5.95      10.30       7.59
C       6.51      11.55       7.40
C       5.74      12.71       7.18
C       6.30      13.93       7.03
C       7.70      14.07       7.08
C       8.52      13.01       7.28
C       7.92      11.69       7.45
C       8.71      10.56       7.70
C       8.14       9.34       7.91
C       8.32      15.45       6.94
C       4.76       5.36       5.69
C       4.53       5.21       4.22
C       3.26       5.51       3.69
C       2.97       5.29       2.39
C       3.94       4.73       1.52
C       3.66       4.42       0.19
C       4.59       3.82      29.92
C       5.81       3.53      30.44
C       6.19       3.82       1.21
C       5.22       4.40       2.08
C       5.49       4.69       3.41
C       4.18       3.40      28.53
C       5.42       5.76      10.74
C       5.78       6.16      12.16
C       5.00       7.05      12.86
C       5.37       7.46      14.14
C       4.67       8.46      14.87
C       5.09       8.85      16.11
C       6.23       8.32      16.68
C       6.99       7.41      16.03
C       6.56       6.96      14.73
C       7.33       6.04      13.99
C       6.95       5.63      12.74
C       6.83       8.83      18.04
C       7.81      23.72       4.50
C      -3.03      23.75       4.38
C       1.20       0.42       4.53
C       2.69       0.41       4.44
C       3.37       1.56       4.63
C       4.74       1.52       4.61
C       5.44       0.26       4.43
C       1.21      23.64       4.25
C      -0.29      23.65       4.23
C      -0.99      22.47       4.07
C      -2.33      22.51       4.10
C       6.91       0.27       4.53
C       8.51       8.98      21.85
C       7.32       7.48      23.34
C       8.48       9.43      24.23
C       6.11       8.93      21.86
C       7.27      10.84      22.76
C       6.15       9.37      24.22
C       2.40       4.17      24.84
C       2.65       4.40      22.45
C       3.69       5.98      23.91
C       3.72       2.58      23.58
C       4.80       4.22      25.06
C       4.99       4.40      22.69
C      10.59       4.41      23.28
C       9.97       3.06      23.08
C      10.77       1.94      22.86
C      10.21       0.70      22.67
C       7.44      24.03      22.45
C       6.87      22.81      22.30
C       5.47      22.67      22.35
C       4.66      23.73      22.55
C       8.79       0.56      22.72
C       8.01       1.69      22.97
C       8.57       2.91      23.18
C       4.85      21.29      22.21
C      -0.36       6.88      20.96
C      -0.14       7.03      19.49
C       1.13       6.73      18.96
C       1.42       6.96      17.66
C       0.45       7.51      16.79
C       0.73       7.83      15.46
C      -0.20       8.42      14.65
C      10.91       8.71      15.17
C      10.53       8.42      16.48
C      -0.83       7.85      17.35
C      11.23       7.56      18.68
C       0.21       8.84      13.26
C      11.30       6.49      26.02
C      10.94       6.09      27.44
C      -0.61       5.20      28.13
C      11.35       4.78      29.41
C      -0.28       3.79      30.14
C      11.63       3.40       0.84
C      10.49       3.92       1.41
C       9.73       4.84       0.76
C      10.16       5.29      30.00
C       9.39       6.21      29.26
C       9.77       6.61      28.01
C       9.89       3.41       2.77
C       5.37      13.02      19.77
C       3.88      12.99      19.65
C       3.19      11.83      19.80
C       1.71      11.83      19.71
C       1.03      10.69      19.90
C      -0.34      10.73      19.88
C      -1.05      11.98      19.70
C      -0.36      13.10      19.53
C       1.14      13.09      19.50
C       1.84      14.27      19.34
C       3.18      14.23      19.38
C       9.81      11.97      19.80
N       0.61      20.58      22.62
N      -0.64      22.06      24.14
N      -1.84      20.55      22.62
N      -0.65      22.48      21.72
N       6.86      17.38      22.10
N       8.01      15.58      20.92
N       8.22      15.81      23.33
N       9.30      17.40      21.86
N       0.24      16.16       7.35
N       1.49      14.68       8.87
N       2.69      16.18       7.35
N       1.50      14.26       6.45
N       6.31      19.36       6.83
N       5.17      21.15       5.65
N       4.95      20.93       8.06
N       3.88      19.34       6.58
N       8.17       3.91       7.92
N       9.43       2.44       6.40
N      10.62       3.94       7.92
N       9.43       2.01       8.82
N       1.92       7.11       8.44
N       0.77       8.91       9.62
N       0.56       8.68       7.21
N      -0.51       7.09       8.69
N       8.55       8.33      23.19
N       7.29       9.81      21.67
N       6.10       8.31      23.19
N       7.29      10.23      24.09
N       2.47       5.13      23.72
N       3.62       3.34      24.89
N       3.83       3.56      22.48
N       4.91       5.16      23.96
O       3.91      16.75      22.55
O       1.85      17.63      22.37
O      -0.78       8.94      23.36
O       1.21       8.11      23.94
O       5.03      18.81      24.13
O       2.87      19.32      24.41
O       3.75      21.73       2.67
O       5.69      20.73       2.46
O       4.44      18.27      20.25
O       2.57      19.48      20.39
O       1.09      16.24      11.95
O       2.54      14.60      12.12
O       1.53       1.80      26.48
O      -1.98      24.31      25.47
O       1.30      23.11      26.23
O       4.80       0.76      25.68
O       9.27      19.99       7.28
O      -1.00      19.11       7.10
O       5.17       3.31       8.09
O       3.19       4.14       8.67
O       8.15      17.93       8.86
O      -2.02      17.42       9.14
O       9.42      15.01      17.94
O       7.48      16.01      17.73
O       8.74      18.47       4.98
O      -1.72      17.25       5.12
O      -0.24      20.50      27.22
O      -1.69      22.14      27.39
O       2.86      10.45      11.21
O       2.83      12.43      10.20
O      -0.45      13.63      10.96
O      -0.41      11.48      10.41
O       4.88       7.75       7.99
O       6.93       6.86       8.17
O       9.57      15.56       7.18
O       7.58      16.38       6.60
O       3.76       5.68       6.41
O       5.92       5.17       6.13
O       5.03       2.77      27.87
O       3.09       3.76      28.08
O       4.35       6.23      10.29
O       6.21       5.01      10.15
O       7.70       8.25      18.59
O       6.24       9.89      18.42
O       7.26      22.69       4.06
O      10.76       0.18       5.07
O       7.48       1.38       4.31
O       3.98      23.73       4.86
O      -0.48       4.50      23.26
O       9.79       5.39      23.44
O       3.61      21.18      22.45
O       5.60      20.36      21.87
O       0.64       6.56      21.68
O      10.80       7.08      21.40
O      -0.64       9.48      12.60
O       1.30       8.48      12.81
O       0.04       6.02      25.56
O      10.50       7.24      25.42
O       9.02       4.00       3.32
O      10.48       2.35       3.15
O       5.92      14.05      19.33
O       5.96      12.06      20.34
O       9.24      10.87      19.58
O       9.19      13.01      20.13
