118

Li       0.00       4.65       8.06
Li       0.00      -4.65       8.06
Li       0.00       9.30       0.00
Li       7.45       4.65       8.06
Li       7.45      -4.65       8.06
Li       7.45       9.30       0.00
Ni      14.61       9.30       5.37
Ni       7.15      -0.00      10.74
Ni       0.30      -0.00      10.74
Ni       7.75       9.30       5.37
C      12.39       7.14       4.87
C      12.40       6.70       3.55
C      14.10       6.67       6.41
C       0.49       7.18       7.09
C      12.39       9.95       7.49
C      12.40       9.03       8.54
C      14.10      11.52       7.13
C       0.49      11.85       6.35
C      12.39      10.81       3.75
C      12.40      12.18       4.03
C      14.10       9.72       2.57
C       0.49       8.88       2.67
C       4.94       2.16      11.24
C       4.95       2.60      12.56
C       6.65       2.63       9.70
C       7.94       2.13       9.02
C       4.94      -0.65       8.62
C       4.95       0.28       7.57
C       6.65      -2.22       8.98
C       7.94      -2.55       9.76
C       4.94      -1.51      12.37
C       4.95      -2.88      12.09
C       6.65      -0.42      13.54
C       7.94       0.42      13.44
C       2.51       2.16      11.24
C       2.50       2.60      12.56
C       0.80       2.63       9.70
C      14.42       2.13       9.02
C       2.51      -0.65       8.62
C       2.50       0.28       7.57
C       0.80      -2.22       8.98
C      14.42      -2.55       9.76
C       2.51      -1.51      12.37
C       2.50      -2.88      12.09
C       0.80      -0.42      13.54
C      14.42       0.42      13.44
C       9.96       7.14       4.87
C       9.95       6.70       3.55
C       8.25       6.67       6.41
C       6.97       7.18       7.09
C       9.96       9.95       7.49
C       9.95       9.03       8.54
C       8.25      11.52       7.13
C       6.97      11.85       6.35
C       9.96      10.81       3.75
C       9.95      12.18       4.03
C       8.25       9.72       2.57
C       6.97       8.88       2.67
C      11.18       7.33       5.54
C      11.18       6.49       2.90
C      11.18      10.43       7.00
C      11.18       8.57       9.04
C      11.18      10.15       3.58
C      11.18      12.85       4.17
C       3.73       1.97      10.58
C       3.73       2.81      13.21
C       3.73      -1.13       9.12
C       3.73       0.73       7.07
C       3.73      -0.84      12.53
C       3.73      -3.55      11.94
N      13.61       7.49       5.53
N      13.61      10.35       6.86
N      13.61      10.07       3.72
N       6.16       1.81      10.58
N       6.16      -1.04       9.25
N       6.16      -0.77      12.39
N       1.29       1.81      10.58
N       1.29      -1.04       9.25
N       1.29      -0.77      12.39
N       8.74       7.49       5.53
N       8.74      10.35       6.86
N       8.74      10.07       3.72
O      13.67       5.52       6.75
O       1.01       6.41       7.94
O       0.93       8.31       6.76
O      13.67      12.39       7.95
O       1.01      12.97       6.59
O       0.93      11.00       5.54
O      13.67      10.00       1.41
O       1.01       8.53       1.58
O       0.93       8.60       3.81
O       6.22       3.78       9.36
O       8.46       2.89       8.18
O       8.38       1.00       9.35
O       6.22      -3.09       8.16
O       8.46      -3.67       9.52
O       8.38      -1.70      10.57
O       6.22      -0.69      14.71
O       8.46       0.77      14.53
O       8.38       0.70      12.30
O       1.24       3.78       9.36
O      13.89       2.89       8.18
O      13.98       1.00       9.35
O       1.24      -3.09       8.16
O      13.89      -3.67       9.52
O      13.98      -1.70      10.57
O       1.24      -0.69      14.71
O      13.89       0.77      14.53
O      13.98       0.70      12.30
O       8.69       5.52       6.75
O       6.44       6.41       7.94
O       6.52       8.31       6.76
O       8.69      12.39       7.95
O       6.44      12.97       6.59
O       6.52      11.00       5.54
O       8.69      10.00       1.41
O       6.44       8.53       1.58
O       6.52       8.60       3.81
