38

Zr       5.62      15.83      19.30
O       4.67      18.97      13.90
O       7.33      17.04      18.72
O       3.87      16.87      13.97
Zr       5.62      19.30      15.83
O       6.05      15.53      17.18
O       4.67      13.90      18.97
Zr       3.47      18.45      18.45
Zr       6.88      19.10      19.10
O       7.33      18.72      17.04
O       6.05      17.18      15.53
O       3.87      13.97      16.87
C       3.05      16.54      21.05
C       8.19      18.59      14.07
Zr       4.36      16.03      16.03
Zr       7.77      16.67      16.67
O       7.27      19.40      14.38
O       8.65      17.70      14.85
O       3.97      20.75      15.73
O       2.59      20.28      17.43
O       6.57      16.16      21.23
O       3.91      18.09      16.40
C       8.19      14.07      18.59
O       7.36      18.25      21.15
O       5.19      19.59      17.95
C       3.05      21.05      16.54
C       6.99      17.21      21.78
C       4.25      17.92      13.34
O       6.57      21.23      16.16
O       3.91      16.40      18.09
O       7.36      21.15      18.25
O       5.19      17.95      19.59
C       4.25      13.34      17.92
C       6.99      21.78      17.21
O       3.97      15.73      20.75
O       2.59      17.43      20.28
O       7.27      14.38      19.40
O       8.65      14.85      17.70
