600

O          5.52887        5.96978        1.19570
O          3.72200        7.10569        0.70590
C          4.46043        6.06654        0.55520
In         5.20567        7.88386        2.26403
O          6.63808        8.79216        0.80542
O          4.81133        9.89707        1.30091
C          5.89391        9.82210        0.66254
H          4.64033       12.03758        0.01185
O          3.19857        8.73771        3.42003
O          4.09156        6.79302        3.79064
O          6.03665        9.08640        3.97357
O          6.93199        7.13543        3.54017
O         -3.86368       12.20449       15.26800
O         -2.97068       14.14918       15.63860
N         -6.73977       13.93892       20.74081
C         -7.83376       10.89413       23.41656
C         -6.62366       10.83654       22.72748
H         -6.03392       10.10671       22.87842
C         -6.27219       11.81852       21.83556
H         -5.45666       11.75276       21.35477
C         -7.11782       12.91799       21.63131
C         -8.29582       12.99359       22.32157
H         -8.87013       13.73808       22.18887
C         -8.66693       11.97601       23.22889
C         -5.99918       13.69348       19.55531
C         -6.14359       12.53077       18.82002
H         -6.71289       11.83444       19.12499
C         -5.44119       12.39569       17.62740
H         -5.54625       11.60826       17.10609
C         -4.60412       13.37997       17.19590
C         -3.78465       13.23128       15.95874
C         -4.43862       14.53431       17.95275
H         -3.83451       15.21032       17.66532
C         -5.14967       14.69514       19.11717
H         -5.05777       15.49513       19.62260
C         -7.37105       15.20990       20.81759
C         -8.16655       15.64005       19.79369
H         -8.29979       15.07001       19.04442
C         -8.78783       16.87732       19.81098
H         -9.32513       17.15794       19.07996
C         -8.60523       17.70433       20.92351
C         -7.81466       17.24925       21.97466
H         -7.69865       17.79459       22.74336
C         -7.19722       16.02665       21.91637
H         -6.65074       15.74016       22.63672
C         -9.22666       19.04400       20.94104
C         -9.31343       19.79771       19.75317
H         -8.92923       19.45949       18.95201
C        -10.45663       20.78848       22.07916
C         -9.78978       19.58703       22.09456
H         -9.70966       19.11395       22.91397
In        -1.85657       13.05834       14.11199
O         13.11740        1.38470       15.82154
O         14.01274        3.33567       15.38814
C         16.20405        1.98741       19.72260
C         15.34371        0.98282       19.33896
H         15.25320        0.21152       19.88563
C         14.61359        1.07999       18.17644
H         14.04668        0.36439       17.91413
C         14.69924        2.22197       17.38120
C         13.92408        2.32752       16.13622
C         15.52607        3.25274       17.77408
H         15.57502        4.04394       17.24827
C         16.28843        3.14761       18.92570
In        12.28643        2.58724       14.11199
O         19.67187       16.44088        1.19570
O         17.86500       17.57679        0.70590
H         18.78333        1.56648        0.01185
C         18.60343       16.53764        0.55520
In        19.34867       18.35496        2.26403
O         10.27932        1.73339       15.26800
O         11.17232        3.67808       15.63860
O         -1.02560       11.85580       15.82154
O         -0.13026       13.80677       15.38814
N          7.40323        3.46782       20.74081
N          2.88123       12.28700       20.84081
C          6.30924        0.42303       23.41656
C          7.51934        0.36544       22.72748
C          7.87081        1.34742       21.83556
H          8.68634        1.28166       21.35477
C          7.02518        2.44689       21.63131
C          5.84718        2.52249       22.32157
H          5.27287        3.26698       22.18887
C          5.47607        1.50491       23.22889
C          8.14382        3.22238       19.55531
C          7.99941        2.05967       18.82002
H          7.43011        1.36334       19.12499
C          8.70181        1.92459       17.62740
H          8.59675        1.13716       17.10609
C          9.53888        2.90887       17.19590
C         10.35835        2.76018       15.95874
C          9.70438        4.06321       17.95275
H         10.30849        4.73922       17.66532
C          8.99333        4.22404       19.11717
H          9.08523        5.02403       19.62260
C          6.77195        4.73880       20.81759
C          5.97645        5.16895       19.79369
H          5.84321        4.59891       19.04442
C          5.35517        6.40622       19.81098
H          4.81787        6.68684       19.07996
C          5.53777        7.23323       20.92351
C          6.32834        6.77815       21.97466
H          6.44435        7.32349       22.74336
C          6.94578        5.55555       21.91637
H          7.49226        5.26906       22.63672
C          4.91634        8.57290       20.94104
C          4.82957        9.32661       19.75317
H          5.21377        8.98839       18.95201
C          4.20005       10.54377       19.74487
H          4.17567       11.05329       18.94253
C          3.59492       11.04492       20.88915
C          3.68637       10.31738       22.07916
H          3.28914       10.65120       22.87368
C          4.35322        9.11593       22.09456
H          4.43334        8.64285       22.91397
C          2.06105       12.45851       19.72260
C          1.20071       11.45392       19.33896
H          1.11020       10.68262       19.88563
C          0.47059       11.55109       18.17644
H         -0.09632       10.83549       17.91413
C          0.55624       12.69307       17.38120
C         -0.21892       12.79862       16.13622
C          1.38307       13.72384       17.77408
H          1.43202       14.51504       17.24827
C          2.14543       13.61871       18.92570
H          2.72478       14.32865       19.17949
C          3.30560       13.33767       21.67680
C          2.40647       14.39923       21.95144
H          1.53863       14.39986       21.56804
C          2.79986       15.42833       22.77535
H          2.19313       16.13387       22.96610
C          4.05308       15.44801       23.32462
C          4.94755       14.42038       23.04595
H          5.81975       14.42918       23.42106
C          4.55669       13.38751       22.21873
H          5.17515       12.69307       22.02063
O         20.78108       19.26326        0.80542
O         18.95433       20.36817        1.30091
C         20.03691       20.29320        0.66254
O         17.34157       19.20881        3.42003
O         18.23456       17.26412        3.79064
O         20.17965       19.55750        3.97357
O         21.07499       17.60653        3.54017
O         -0.42416       12.15004       12.65339
O         -2.25091       11.04513       13.14887
N          0.32248        7.00328        8.89285
C         -1.16834       11.12010       12.51050
C         -0.77152       10.04807       11.56859
C          0.43859       10.10566       10.87951
H          1.02833       10.83549       11.03046
C          0.79005        9.12368        9.98760
H          1.60559        9.18944        9.50681
C         -0.05558        8.02421        9.78334
C         -1.23357        7.94861       10.47360
H         -1.80788        7.20412       10.34090
C         -1.60468        8.96619       11.38092
H         -2.42192        8.90462       11.85981
C          1.06307        7.24872        7.70734
C          0.91866        8.41143        6.97205
H          0.34936        9.10776        7.27702
C          1.62106        8.54651        5.77944
H          1.51599        9.33394        5.25813
C          2.45813        7.56223        5.34794
C          3.27760        7.71092        4.11077
C          2.62363        6.40789        6.10478
H          3.22773        5.73188        5.81735
C          1.91258        6.24706        7.26920
H          2.00448        5.44707        7.77464
C         -0.30881        5.73230        8.96962
C         -1.10430        5.30215        7.94572
H         -1.23755        5.87219        7.19645
C         -1.72559        4.06488        7.96302
H         -2.26289        3.78426        7.23200
C         -1.54298        3.23787        9.07554
C         -0.75242        3.69295       10.12669
H         -0.63641        3.14761       10.89539
C         -0.13498        4.91555       10.06840
H          0.41150        5.20204       10.78876
C         -2.16441        1.89820        9.09308
C         -2.25119        1.14449        7.90520
H         -1.86698        1.48271        7.10404
C         -3.39439        0.15372       10.23119
C         -2.72753        1.35517       10.24660
H         -2.64741        1.82825       11.06600
O         -1.53338       14.97242       13.04366
O         -3.34025       13.83651       12.55387
N         -4.19953       19.12630        8.99284
C         -2.88070       20.86953        7.89691
H         -2.90509       20.36001        7.09456
C         -3.48583       20.36838        9.04118
H         -3.79161       20.76210       11.02572
H         -4.35597       17.08465        7.33152
C         -3.77515       18.07563        9.82884
C         -4.67429       17.01407       10.10347
H         -5.54212       17.01344        9.72007
C         -4.28089       15.98497       10.92738
H         -4.88762       15.27943       11.11813
C         -3.02768       15.96529       11.47665
C         -2.60182       14.87566       12.40316
C         -2.13321       16.99292       11.19799
H         -1.26100       16.98412       11.57309
C         -2.52406       18.02579       10.37076
H         -1.90560       18.72023       10.17266
C         23.26629       18.95479        7.87463
C         22.40596       19.95938        7.49100
H         22.31545       20.73068        8.03766
C         21.67584       19.86221        6.32847
H         21.10892       20.57781        6.06616
C         21.76149       18.72023        5.53324
C         20.98633       18.61468        4.28825
C         22.58831       17.68946        5.92612
H         22.63726       16.89826        5.40030
C         23.35067       17.79459        7.07774
O         13.71884        1.67894       12.65339
O         11.89209        0.57403       13.14887
C         12.97466        0.64900       12.51050
H         15.17133        0.36439       11.03046
O         12.60962        4.50132       13.04366
O         10.80275        3.36541       12.55387
N         14.46548       17.47438        8.89285
N          9.94347        8.65520        8.99284
C         13.37148       20.51917       11.56859
C         14.58159       20.57676       10.87951
C         14.93305       19.59478        9.98760
H         15.74859       19.66054        9.50681
C         14.08742       18.49531        9.78334
C         12.90943       18.41971       10.47360
H         12.33512       17.67522       10.34090
C         12.53832       19.43729       11.38092
H         11.72108       19.37572       11.85981
C         15.20607       17.71982        7.70734
C         15.06166       18.88253        6.97205
H         14.49236       19.57886        7.27702
C         15.76406       19.01761        5.77944
H         15.65899       19.80504        5.25813
C         16.60113       18.03333        5.34794
C         17.42060       18.18202        4.11077
C         16.76663       16.87899        6.10478
H         17.37073       16.20298        5.81735
C         16.05558       16.71816        7.26920
H         16.14748       15.91817        7.77464
C         13.83419       16.20340        8.96962
C         13.03870       15.77325        7.94572
H         12.90545       16.34329        7.19645
C         12.41741       14.53598        7.96302
H         11.88011       14.25536        7.23200
C         12.60002       13.70897        9.07554
C         13.39058       14.16405       10.12669
H         13.50659       13.61871       10.89539
C         14.00802       15.38665       10.06840
H         14.55450       15.67314       10.78876
C         11.97859       12.36930        9.09308
C         11.89181       11.61559        7.90520
H         12.27602       11.95381        7.10404
C         11.26230       10.39843        7.89691
H         11.23791        9.88891        7.09456
C         10.65717        9.89728        9.04118
C         10.74861       10.62482       10.23119
H         10.35139       10.29100       11.02572
C         11.41547       11.82627       10.24660
H         11.49559       12.29935       11.06600
C          9.12329        8.48369        7.87463
C          8.26296        9.48828        7.49100
H          8.17245       10.25958        8.03766
C          7.53284        9.39111        6.32847
H          6.96592       10.10671        6.06616
C          7.61849        8.24913        5.53324
C          6.84333        8.14358        4.28825
C          8.44531        7.21836        5.92612
H          8.49426        6.42716        5.40030
C          9.20767        7.32349        7.07774
H          9.78703        6.61355        7.33152
C         10.36785        7.60453        9.82884
C          9.46871        6.54297       10.10347
H          8.60088        6.54234        9.72007
C          9.86211        5.51387       10.92738
H          9.25538        4.80833       11.11813
C         11.11532        5.49419       11.47665
C         11.54118        4.40456       12.40316
C         12.00979        6.52182       11.19799
H         12.88200        6.51302       11.57309
C         11.61894        7.55469       10.37076
H         12.23740        8.24913       10.17266
N        -11.26177        1.81590       20.84081
C         -9.94295        0.07267       19.74487
H         -9.96733        0.58219       18.94253
C        -10.54808        0.57382       20.88915
H        -10.85386        0.18010       22.87368
H        -11.41822        3.85755       19.17949
C        -10.83740        2.86657       21.67680
C        -11.73653        3.92813       21.95144
H        -12.60437        3.92876       21.56804
C        -11.34314        4.95723       22.77535
H        -11.94987        5.66277       22.96610
C        -10.08992        4.97691       23.32462
C         -9.19545        3.94928       23.04595
H         -8.32325        3.95808       23.42106
C         -9.58631        2.91641       22.21873
H         -8.96785        2.22197       22.02063
O         -6.01814        1.38470       19.72236
O         -6.91348        3.33567       20.15576
C         -9.10478        1.98741       15.82130
C         -8.24445        0.98282       16.20494
H         -8.15394        0.21152       15.65827
C         -7.51433        1.07999       17.36746
H         -6.94741        0.36439       17.62977
C         -7.59998        2.22197       18.16270
C         -6.82482        2.32752       19.40768
C         -8.42680        3.25274       17.76982
H         -8.47575        4.04394       18.29563
C         -9.18916        3.14761       16.61819
In        -5.18716        2.58724       21.43190
O         15.69489        5.96978       10.65227
O         17.50176        7.10569       11.14206
N         18.36104        1.81590       14.70309
C         17.04221        0.07267       15.79903
H         17.06660        0.58219       16.60137
C         17.64734        0.57382       14.65475
H         17.95312        0.18010       12.67022
H         18.51748        3.85755       16.36441
C         17.93666        2.86657       13.86710
C         18.83580        3.92813       13.59246
H         19.70363        3.92876       13.97586
C         18.44240        4.95723       12.76855
H         19.04913        5.66277       12.57780
C         17.18919        4.97691       12.21928
C         16.76333        6.06654       11.29277
C         16.29472        3.94928       12.49795
H         15.42251        3.95808       12.12284
C         16.68557        2.91641       13.32517
H         16.06711        2.22197       13.52327
In        16.01808        7.88386        9.58394
O         14.58567        8.79216       11.04254
O         16.41242        9.89707       10.54706
O         10.96294       12.20449       20.27590
O         10.06995       14.14918       19.90529
N         13.83903       13.93892       14.80309
C         15.32985        9.82210       11.18543
C         14.93303       10.89413       12.12734
C         13.72292       10.83654       12.81642
H         13.13318       10.10671       12.66548
C         13.37146       11.81852       13.70833
H         12.55592       11.75276       14.18912
C         14.21709       12.91799       13.91259
C         15.39508       12.99359       13.22233
H         15.96939       13.73808       13.35503
C         15.76619       11.97601       12.31501
H         16.58343       12.03758       11.83612
C         13.09844       13.69348       15.98859
C         13.24285       12.53077       16.72388
H         13.81215       11.83444       16.41891
C         12.54045       12.39569       17.91649
H         12.64552       11.60826       18.43781
C         11.70338       13.37997       18.34800
C         10.88391       13.23128       19.58516
C         11.53788       14.53431       17.59115
H         10.93378       15.21032       17.87858
C         12.24893       14.69514       16.42673
H         12.15703       15.49513       15.92130
C         14.47032       15.20990       14.72631
C         15.26581       15.64005       15.75021
H         15.39906       15.07001       16.49948
C         15.88710       16.87732       15.73291
H         16.42440       17.15794       16.46393
C         15.70449       17.70433       14.62039
C         14.91393       17.24925       13.56924
H         14.79792       17.79459       12.80054
C         14.29649       16.02665       13.62753
H         13.75001       15.74016       12.90717
C         16.32592       19.04400       14.60286
C         16.41270       19.79771       15.79073
H         16.02849       19.45949       16.59189
C         17.55590       20.78848       13.46474
C         16.88905       19.58703       13.44934
H         16.80892       19.11395       12.62993
In         8.95584       13.05834       21.43190
O         18.02519        8.73771        8.42793
O         17.13219        6.79302        8.05733
O         15.18711        9.08640        7.87440
O         14.29177        7.13543        8.30779
O         -3.18006        1.73339       20.27590
O         -4.07305        3.67808       19.90529
O          8.12486       11.85580       19.72236
O          7.22952       13.80677       20.15576
O          1.55189       16.44088       10.65227
O          3.35876       17.57679       11.14206
N         -0.30397        3.46782       14.80309
N          4.21804       12.28700       14.70309
C          0.79003        0.42303       12.12734
C         -0.42008        0.36544       12.81642
C         -0.77154        1.34742       13.70833
H         -1.58708        1.28166       14.18912
C          0.07409        2.44689       13.91259
C          1.25208        2.52249       13.22233
H          1.82639        3.26698       13.35503
C          1.62319        1.50491       12.31501
H          2.44043        1.56648       11.83612
C         -1.04456        3.22238       15.98859
C         -0.90015        2.05967       16.72388
H         -0.33085        1.36334       16.41891
C         -1.60255        1.92459       17.91649
H         -1.49748        1.13716       18.43781
C         -2.43962        2.90887       18.34800
C         -3.25909        2.76018       19.58516
C         -2.60512        4.06321       17.59115
H         -3.20922        4.73922       17.87858
C         -1.89407        4.22404       16.42673
H         -1.98597        5.02403       15.92130
C          0.32732        4.73880       14.72631
C          1.12281        5.16895       15.75021
H          1.25606        4.59891       16.49948
C          1.74410        6.40622       15.73291
H          2.28140        6.68684       16.46393
C          1.56149        7.23323       14.62039
C          0.77093        6.77815       13.56924
H          0.65492        7.32349       12.80054
C          0.15349        5.55555       13.62753
H         -0.39299        5.26906       12.90717
C          2.18292        8.57290       14.60286
C          2.26970        9.32661       15.79073
H          1.88549        8.98839       16.59189
C          2.89921       10.54377       15.79903
H          2.92360       11.05329       16.60137
C          3.50434       11.04492       14.65475
C          3.41290       10.31738       13.46474
H          3.81012       10.65120       12.67022
C          2.74605        9.11593       13.44934
H          2.66592        8.64285       12.62993
C          5.03822       12.45851       15.82130
C          5.89855       11.45392       16.20494
H          5.98906       10.68262       15.65827
C          6.62867       11.55109       17.36746
H          7.19559       10.83549       17.62977
C          6.54302       12.69307       18.16270
C          7.31818       12.79862       19.40768
C          5.71620       13.72384       17.76982
H          5.66725       14.51504       18.29563
C          4.95384       13.61871       16.61819
H          4.37448       14.32865       16.36441
C          3.79366       13.33767       13.86710
C          4.69280       14.39923       13.59246
H          5.56063       14.39986       13.97586
C          4.29940       15.42833       12.76855
H          4.90613       16.13387       12.57780
C          3.04619       15.44801       12.21928
C          2.62033       16.53764       11.29277
C          2.15172       14.42038       12.49795
H          1.27951       14.42918       12.12284
C          2.54257       13.38751       13.32517
H          1.92411       12.69307       13.52327
In         1.87508       18.35496        9.58394
O          0.44267       19.26326       11.04254
O          2.26942       20.36817       10.54706
C          1.18685       20.29320       11.18543
H         -1.00982       20.57781       12.66548
O          3.88219       19.20881        8.42793
O          2.98919       17.26412        8.05733
O          1.04411       19.55750        7.87440
O          0.14877       17.60653        8.30779
C         -2.04254       18.95479        3.97333
C         -1.18220       19.95938        4.35697
H         -1.09169       20.73068        3.81031
C         -0.45208       19.86221        5.51949
H          0.11483       20.57781        5.78181
C         -0.53773       18.72023        6.31473
C          0.23743       18.61468        7.55971
C         -1.36456       17.68946        5.92185
H         -1.41351       16.89826        6.44766
C         -2.12692       17.79459        4.77023
N         20.90128        7.00328        2.95512
C         21.99527       10.04807        0.27938
C         20.78517       10.10566        0.96845
H         20.19543       10.83549        0.81751
C         20.43370        9.12368        1.86037
H         19.61817        9.18944        2.34116
C         21.27933        8.02421        2.06463
C         22.45733        7.94861        1.37436
H         23.03164        7.20412        1.50706
C         22.82844        8.96619        0.46705
C         20.16069        7.24872        4.14063
C         20.30510        8.41143        4.87591
H         20.87440        9.10776        4.57095
C         19.60270        8.54651        6.06853
H         19.70776        9.33394        6.58984
C         18.76563        7.56223        6.50003
C         17.94616        7.71092        7.73720
C         18.60013        6.40789        5.74318
H         17.99602        5.73188        6.03061
C         19.31118        6.24706        4.57877
H         19.21928        5.44707        4.07333
C         21.53256        5.73230        2.87834
C         22.32806        5.30215        3.90225
H         22.46130        5.87219        4.65151
C         22.94935        4.06488        3.88495
H         23.48664        3.78426        4.61597
C         22.76674        3.23787        2.77242
C         21.97617        3.69295        1.72127
H         21.86016        3.14761        0.95258
C         21.35873        4.91555        1.77956
H         20.81225        5.20204        1.05921
C         23.38817        1.89820        2.75489
C         23.47494        1.14449        3.94277
H         23.09074        1.48271        4.74393
C         24.61814        0.15372        1.61677
C         23.95129        1.35517        1.60137
H         23.87117        1.82825        0.78197
O          7.52343       12.15004       22.89051
O          9.35018       11.04513       22.39503
C          8.26760       11.12010       23.03339
H          9.52118        8.90462       23.68408
O          8.63264       14.97242       22.50024
O         10.43951       13.83651       22.99003
C          9.70108       14.87566       23.14074
O         -6.61957        1.67894       22.89051
O         -4.79282        0.57403       22.39503
C         -5.87540        0.64900       23.03339
O         -5.51036        4.50132       22.50024
O         -3.70349        3.36541       22.99003
N          6.75828       17.47438        2.95512
N         11.28028        8.65520        2.85512
C          7.85227       20.51917        0.27938
C          6.64217       20.57676        0.96845
C          6.29070       19.59478        1.86037
H          5.47517       19.66054        2.34116
C          7.13633       18.49531        2.06463
C          8.31433       18.41971        1.37436
H          8.88864       17.67522        1.50706
C          8.68544       19.43729        0.46705
C          6.01769       17.71982        4.14063
C          6.16210       18.88253        4.87591
H          6.73140       19.57886        4.57095
C          5.45970       19.01761        6.06853
H          5.56476       19.80504        6.58984
C          4.62263       18.03333        6.50003
C          3.80316       18.18202        7.73720
C          4.45713       16.87899        5.74318
H          3.85302       16.20298        6.03061
C          5.16818       16.71816        4.57877
H          5.07628       15.91817        4.07333
C          7.38956       16.20340        2.87834
C          8.18506       15.77325        3.90225
H          8.31830       16.34329        4.65151
C          8.80635       14.53598        3.88495
H          9.34364       14.25536        4.61597
C          8.62374       13.70897        2.77242
C          7.83317       14.16405        1.72127
H          7.71716       13.61871        0.95258
C          7.21573       15.38665        1.77956
H          6.66925       15.67314        1.05921
C          9.24517       12.36930        2.75489
C          9.33194       11.61559        3.94277
H          8.94774       11.95381        4.74393
C          9.96146       10.39843        3.95106
H          9.98584        9.88891        4.75340
C         10.56659        9.89728        2.80678
C         10.47514       10.62482        1.61677
H         10.87237       10.29100        0.82225
C          9.80829       11.82627        1.60137
H          9.72817       12.29935        0.78197
C         12.10046        8.48369        3.97333
C         12.96080        9.48828        4.35697
H         13.05131       10.25958        3.81031
C         13.69092        9.39111        5.51949
H         14.25783       10.10671        5.78181
C         13.60527        8.24913        6.31473
C         14.38043        8.14358        7.55971
C         12.77844        7.21836        5.92185
H         12.72949        6.42716        6.44766
C         12.01608        7.32349        4.77023
H         11.43673        6.61355        4.51644
C         10.85591        7.60453        2.01913
C         11.75504        6.54297        1.74449
H         12.62288        6.54234        2.12789
C         11.36165        5.51387        0.92059
H         11.96838        4.80833        0.72983
C         10.10843        5.49419        0.37132
C          9.21397        6.52182        0.64998
H          8.34176        6.51302        0.27487
C          9.60482        7.55469        1.47720
H          8.98636        8.24913        1.67530
H         -4.62182       19.37572       23.68408
C         -4.44192        4.40456       23.14074
H          8.10908       20.57781       22.87842
N         25.42328       19.12630        2.85512
C         24.10446       20.86953        3.95106
H         24.12884       20.36001        4.75340
C         24.70959       20.36838        2.80678
H         25.01537       20.76210        0.82225
H         25.57973       17.08465        4.51644
C         24.99891       18.07563        2.01913
C         25.89804       17.01407        1.74449
H         26.76588       17.01344        2.12789
C         25.50465       15.98497        0.92059
H         26.11138       15.27943        0.72983
C         24.25143       15.96529        0.37132
C         23.35697       16.99292        0.64998
H         22.48476       16.98412        0.27487
C         23.74782       18.02579        1.47720
H         23.12936       18.72023        1.67530
H          6.05243        0.36439        0.81751
